xflr5 v6.61

 Calculated polar for: SJ4_8_00

 1 1 Reynolds number fixed          Mach number fixed         

 xtrf =   1.000 (top)        1.000 (bottom)
 Mach =   0.200     Re =     0.025 e 6     Ncrit =   9.000

  alpha     CL        CD       CDp       Cm    Top Xtr Bot Xtr   Cpmin    Chinge    XCp    
 ------- -------- --------- --------- -------- ------- ------- -------- --------- ---------
 -30.000  -1.1625   0.38228   0.37240   0.1725  1.0001  0.0731  -1.8113   0.0000   0.0000   0.0000   0.3658
 -29.000  -1.1343   0.37525   0.36525   0.1609  1.0001  0.0783  -1.8170   0.0000   0.0000   0.0000   0.3617
 -28.000  -1.1057   0.36773   0.35764   0.1493  1.0001  0.0808  -1.8263   0.0000   0.0000   0.0000   0.3573
 -27.000  -1.0732   0.35131   0.34107   0.1404  1.0001  0.0878  -1.7551   0.0000   0.0000   0.0000   0.3551
 -26.000  -1.0449   0.35028   0.33999   0.1279  1.0001  0.0931  -1.7757   0.0000   0.0000   0.0000   0.3490
 -25.000  -1.0085   0.32922   0.31878   0.1201  1.0001  0.1015  -1.6733   0.0000   0.0000   0.0000   0.3473
 -24.000  -0.9786   0.32399   0.31356   0.1086  1.0001  0.1077  -1.6719   0.0000   0.0000   0.0000   0.3412
 -23.000  -0.9418   0.30765   0.29711   0.1004  1.0001  0.1185  -1.6328   0.0000   0.0000   0.0000   0.3384
 -22.000  -0.9062   0.29403   0.28340   0.0916  1.0001  0.1269  -1.6138   0.0000   0.0000   0.0000   0.3344
 -21.000  -0.8735   0.28405   0.27343   0.0821  1.0001  0.1367  -1.6147   0.0000   0.0000   0.0000   0.3289
 -20.000  -0.8417   0.27460   0.26401   0.0731  1.0001  0.1492  -1.6042   0.0000   0.0000   0.0000   0.3231
 -19.000  -0.8027   0.25793   0.24731   0.0662  1.0001  0.1657  -1.5367   0.0000   0.0000   0.0000   0.3199
 -18.000  -0.7665   0.24421   0.23354   0.0592  1.0001  0.1839  -1.4755   0.0000   0.0000   0.0000   0.3157
 -17.000  -0.7367   0.23375   0.22313   0.0518  1.0001  0.2032  -1.4768   0.0000   0.0000   0.0000   0.3100
 -16.000  -0.6995   0.21813   0.20756   0.0461  1.0001  0.2244  -1.4591   0.0000   0.0000   0.0000   0.3064
 -15.000  -0.6678   0.20487   0.19431   0.0407  1.0001  0.2520  -1.4462   0.0000   0.0000   0.0000   0.3024
 -14.000  -0.6408   0.19271   0.18223   0.0364  1.0001  0.2874  -1.4295   0.0000   0.0000   0.0000   0.2990
 -11.000  -0.5550   0.14974   0.13953   0.0308  1.0001  0.4329  -1.3500   0.0000   0.0000   0.0000   0.2995
 -10.000  -0.5218   0.13466   0.12453   0.0322  1.0001  0.5150  -1.3443   0.0000   0.0000   0.0000   0.3060
  -9.000  -0.4825   0.11899   0.10889   0.0344  1.0001  0.6155  -1.3251   0.0000   0.0000   0.0000   0.3158
  -8.000  -0.4098   0.09998   0.08985   0.0344  1.0001  0.7728  -1.2594   0.0000   0.0000   0.0000   0.3281
  -6.000  -0.5191   0.06995   0.06058  -0.0163  1.0001  0.2590  -2.0003   0.0000   0.0000   0.0000   0.2162
  -5.000  -0.4607   0.04985   0.03933  -0.0284  1.0001  0.2355  -2.1307   0.0000   0.0000   0.0000   0.1858
  -4.000  -0.3664   0.03609   0.02413  -0.0293  1.0001  0.3017  -2.0821   0.0000   0.0000   0.0000   0.1674
  -3.000  -0.1607   0.02353   0.01226  -0.0312  1.0001  0.9999  -1.5479   0.0000   0.0000   0.0000   0.0513
  -2.000  -0.1134   0.02210   0.00899  -0.0250  1.0001  0.9999  -1.1289   0.0000   0.0000   0.0000   0.0257
  -1.000  -0.0348   0.02201   0.00758  -0.0206  1.0001  0.9999  -0.6533   0.0000   0.0000   0.0000  -0.3493
   0.000   0.0493   0.02251   0.00732  -0.0173  1.0001  0.9999  -0.3480   0.0000   0.0000   0.0000   0.6009
   1.000   0.1335   0.02362   0.00814  -0.0150  1.0001  0.9999  -0.4344   0.0000   0.0000   0.0000   0.3601
   2.000   0.2129   0.02564   0.01024  -0.0137  1.0001  0.9999  -0.5497   0.0000   0.0000   0.0000   0.3117
   3.000   0.2818   0.02925   0.01426  -0.0145  1.0001  0.9999  -0.6754   0.0000   0.0000   0.0000   0.2978
   4.000   0.3347   0.03554   0.02116  -0.0186  1.0001  0.9999  -0.8047   0.0000   0.0000   0.0000   0.3013
   5.000   0.6862   0.04324   0.03173  -0.0579  0.7008  0.9999  -1.6061   0.0000   0.0000   0.0000   0.3305
   6.000   0.8160   0.04580   0.03504  -0.0389  0.4620  0.9999  -2.3106   0.0000   0.0000   0.0000   0.2934
   7.000   0.8733   0.05864   0.04842  -0.0299  0.3352  0.9999  -2.6363   0.0000   0.0000   0.0000   0.2794
   8.000   0.8583   0.08071   0.07102  -0.0336  0.3077  0.9999  -2.5218   0.0000   0.0000   0.0000   0.2837
   9.000   0.7852   0.10788   0.09782  -0.0511  0.3472  0.9999  -2.0755   0.0000   0.0000   0.0000   0.3090
  10.000   0.6868   0.13156   0.12098  -0.0792  0.6444  0.9999  -1.5264   0.0000   0.0000   0.0000   0.3577
  11.000   0.7187   0.14816   0.13784  -0.0797  0.5696  0.9999  -1.5873   0.0000   0.0000   0.0000   0.3528
  12.000   0.7528   0.16529   0.15511  -0.0810  0.5028  0.9999  -1.6281   0.0000   0.0000   0.0000   0.3487
  13.000   0.7933   0.18357   0.17349  -0.0825  0.4353  0.9999  -1.6606   0.0000   0.0000   0.0000   0.3443
  14.000   0.8257   0.19979   0.18982  -0.0846  0.3791  0.9999  -1.7135   0.0000   0.0000   0.0000   0.3419
  15.000   0.8527   0.21380   0.20385  -0.0886  0.3384  0.9999  -1.7264   0.0000   0.0000   0.0000   0.3422
  16.000   0.8800   0.22671   0.21673  -0.0936  0.2992  0.9999  -1.7219   0.0000   0.0000   0.0000   0.3435
  17.000   0.9200   0.24481   0.23495  -0.0988  0.2676  0.9999  -1.7441   0.0000   0.0000   0.0000   0.3434
  18.000   0.9538   0.25982   0.24998  -0.1052  0.2395  0.9999  -1.7973   0.0000   0.0000   0.0000   0.3449
  19.000   0.9810   0.26944   0.25957  -0.1135  0.2153  0.9999  -1.8035   0.0000   0.0000   0.0000   0.3487
  20.000   1.0190   0.28674   0.27690  -0.1208  0.1967  0.9999  -1.8388   0.0000   0.0000   0.0000   0.3500
  21.000   1.0487   0.29621   0.28646  -0.1303  0.1787  0.9999  -1.8215   0.0000   0.0000   0.0000   0.3540
  22.000   1.0833   0.30948   0.29978  -0.1390  0.1606  0.9999  -1.8255   0.0000   0.0000   0.0000   0.3563
  23.000   1.1171   0.32233   0.31269  -0.1484  0.1472  0.9999  -1.8820   0.0000   0.0000   0.0000   0.3589
  24.000   1.1501   0.33471   0.32513  -0.1583  0.1360  0.9999  -1.9202   0.0000   0.0000   0.0000   0.3616
  25.000   1.1832   0.34779   0.33836  -0.1681  0.1254  0.9999  -1.9544   0.0000   0.0000   0.0000   0.3640
  26.000   1.2170   0.36403   0.35470  -0.1772  0.1147  0.9999  -2.0007   0.0000   0.0000   0.0000   0.3653
  27.000   1.2471   0.37295   0.36374  -0.1883  0.1047  0.9999  -2.0022   0.0000   0.0000   0.0000   0.3682
  28.000   1.2764   0.38340   0.37432  -0.1996  0.0991  0.9999  -1.9882   0.0000   0.0000   0.0000   0.3710
  29.000   1.3067   0.39825   0.38934  -0.2093  0.0905  0.9999  -2.0293   0.0000   0.0000   0.0000   0.3723
  30.000   1.3332   0.40548   0.39665  -0.2217  0.0861  0.9999  -2.0557   0.0000   0.0000   0.0000   0.3754


