xflr5 v6.61

 Calculated polar for: SJ4_7_00

 1 1 Reynolds number fixed          Mach number fixed         

 xtrf =   1.000 (top)        1.000 (bottom)
 Mach =   0.200     Re =     0.060 e 6     Ncrit =   9.000

  alpha     CL        CD       CDp       Cm    Top Xtr Bot Xtr   Cpmin    Chinge    XCp    
 ------- -------- --------- --------- -------- ------- ------- -------- --------- ---------
 -25.000  -1.0280   0.32902   0.32230   0.1283  1.0001  0.0318  -1.7966   0.0000   0.0000   0.0000   0.3545
 -24.000  -0.9943   0.31627   0.30949   0.1190  1.0001  0.0353  -1.7121   0.0000   0.0000   0.0000   0.3512
 -23.000  -0.9594   0.30490   0.29807   0.1088  1.0001  0.0392  -1.6762   0.0000   0.0000   0.0000   0.3465
 -22.000  -0.9281   0.30197   0.29511   0.0959  1.0001  0.0410  -1.7365   0.0000   0.0000   0.0000   0.3382
 -21.000  -0.8893   0.27983   0.27295   0.0895  1.0001  0.0434  -1.6443   0.0000   0.0000   0.0000   0.3367
 -20.000  -0.8529   0.26629   0.25937   0.0813  1.0001  0.0484  -1.6097   0.0000   0.0000   0.0000   0.3327
 -19.000  -0.8202   0.25783   0.25093   0.0702  1.0001  0.0530  -1.6930   0.0000   0.0000   0.0000   0.3244
 -18.000  -0.7829   0.24057   0.23364   0.0633  1.0001  0.0562  -1.6396   0.0000   0.0000   0.0000   0.3207
 -17.000  -0.7484   0.22795   0.22103   0.0553  1.0001  0.0648  -1.6029   0.0000   0.0000   0.0000   0.3147
 -16.000  -0.7153   0.21359   0.20672   0.0478  1.0001  0.0696  -1.5704   0.0000   0.0000   0.0000   0.3086
 -15.000  -0.6870   0.20204   0.19516   0.0397  1.0001  0.0788  -1.5542   0.0000   0.0000   0.0000   0.3004
 -14.000  -0.6529   0.18560   0.17876   0.0345  1.0001  0.0864  -1.5092   0.0000   0.0000   0.0000   0.2963
 -13.000  -0.6325   0.17275   0.16601   0.0271  1.0001  0.0953  -1.5910   0.0000   0.0000   0.0000   0.2870
 -12.000  -0.6260   0.16282   0.15621   0.0186  1.0001  0.1069  -1.7050   0.0000   0.0000   0.0000   0.2748
 -11.000  -0.5884   0.14365   0.13705   0.0170  1.0001  0.1239  -1.6056   0.0000   0.0000   0.0000   0.2743
 -10.000  -0.5697   0.12938   0.12288   0.0128  1.0001  0.1449  -1.5885   0.0000   0.0000   0.0000   0.2685
  -9.000  -0.5589   0.11502   0.10869   0.0078  1.0001  0.1654  -1.6023   0.0000   0.0000   0.0000   0.2605
  -8.000  -0.5450   0.10070   0.09456   0.0043  1.0001  0.1943  -1.5702   0.0000   0.0000   0.0000   0.2550
  -7.000  -0.5446   0.08726   0.08137  -0.0019  1.0001  0.2339  -1.6024   0.0000   0.0000   0.0000   0.2443
  -6.000  -0.5157   0.07313   0.06740  -0.0008  1.0001  0.3057  -1.5677   0.0000   0.0000   0.0000   0.2467
  -5.000  -0.4273   0.04160   0.03349  -0.0374  1.0001  0.1065  -2.3489   0.0000   0.0000   0.0000   0.1603
  -4.000  -0.3269   0.02759   0.01746  -0.0356  1.0001  0.0952  -2.3581   0.0000   0.0000   0.0000   0.1385
  -3.000  -0.2225   0.01991   0.00937  -0.0315  1.0001  0.1566  -2.0151   0.0000   0.0000   0.0000   0.1060
  -2.000  -0.1093   0.01399   0.00584  -0.0266  1.0001  0.9999  -1.4481   0.0000   0.0000   0.0000   0.0036
  -1.000  -0.0194   0.01405   0.00479  -0.0232  1.0001  0.9999  -0.7714   0.0000   0.0000   0.0000  -0.9531
   0.000   0.0745   0.01454   0.00471  -0.0210  1.0001  0.9999  -0.3161   0.0000   0.0000   0.0000   0.5313
   1.000   0.1675   0.01555   0.00555  -0.0197  1.0001  0.9999  -0.4246   0.0000   0.0000   0.0000   0.3658
   2.000   0.2548   0.01747   0.00764  -0.0196  1.0001  0.9999  -0.5598   0.0000   0.0000   0.0000   0.3247
   3.000   0.4860   0.01940   0.01057  -0.0455  0.9091  0.9999  -0.9928   0.0000   0.0000   0.0000   0.3412
   4.000   0.6432   0.01742   0.00927  -0.0416  0.6939  0.9999  -1.7066   0.0000   0.0000   0.0000   0.3118
   5.000   0.7251   0.02063   0.01113  -0.0298  0.3683  0.9999  -2.4831   0.0000   0.0000   0.0000   0.2874
   6.000   0.8142   0.02817   0.01763  -0.0239  0.1568  0.9999  -3.2026   0.0000   0.0000   0.0000   0.2748
   7.000   0.9035   0.03983   0.03061  -0.0190  0.0983  0.9999  -3.6930   0.0000   0.0000   0.0000   0.2657
   8.000   0.9530   0.05768   0.05021  -0.0142  0.0888  0.9999  -3.8096   0.0000   0.0000   0.0000   0.2591
   9.000   0.9081   0.08201   0.07607  -0.0162  0.1008  0.9999  -3.2928   0.0000   0.0000   0.0000   0.2617
  10.000   0.6528   0.11701   0.11109  -0.0395  0.2512  0.9999  -1.6684   0.0000   0.0000   0.0000   0.3053
  11.000   0.6497   0.13316   0.12726  -0.0408  0.2240  0.9999  -1.6339   0.0000   0.0000   0.0000   0.3071
  12.000   0.6502   0.14742   0.14151  -0.0424  0.1967  0.9999  -1.5984   0.0000   0.0000   0.0000   0.3089
  13.000   0.6280   0.15554   0.14962  -0.0448  0.1749  0.9999  -1.4692   0.0000   0.0000   0.0000   0.3146
  14.000   0.6324   0.16676   0.16085  -0.0473  0.1532  0.9999  -1.4111   0.0000   0.0000   0.0000   0.3174
  15.000   0.6367   0.17726   0.17137  -0.0510  0.1361  0.9999  -1.3247   0.0000   0.0000   0.0000   0.3220
  16.000   0.6475   0.18862   0.18280  -0.0548  0.1202  0.9999  -1.3160   0.0000   0.0000   0.0000   0.3256
  17.000   0.6603   0.20030   0.19452  -0.0587  0.1056  0.9999  -1.3117   0.0000   0.0000   0.0000   0.3291
  18.000   0.6706   0.21183   0.20607  -0.0635  0.0958  0.9999  -1.2619   0.0000   0.0000   0.0000   0.3340
  19.000   0.6868   0.22512   0.21945  -0.0676  0.0876  0.9999  -1.2445   0.0000   0.0000   0.0000   0.3366
  20.000   0.7110   0.24229   0.23669  -0.0707  0.0761  0.9999  -1.2800   0.0000   0.0000   0.0000   0.3366
  21.000   0.7111   0.24882   0.24326  -0.0777  0.0693  0.9999  -1.1422   0.0000   0.0000   0.0000   0.3452
  22.000   0.7327   0.26638   0.26089  -0.0810  0.0634  0.9999  -1.2381   0.0000   0.0000   0.0000   0.3452
  23.000   0.7375   0.27496   0.26957  -0.0877  0.0581  0.9999  -1.1432   0.0000   0.0000   0.0000   0.3522


