xflr5 v6.61

 Calculated polar for: SJ4_8_00

 1 1 Reynolds number fixed          Mach number fixed         

 xtrf =   1.000 (top)        1.000 (bottom)
 Mach =   0.200     Re =     0.080 e 6     Ncrit =   9.000

  alpha     CL        CD       CDp       Cm    Top Xtr Bot Xtr   Cpmin    Chinge    XCp    
 ------- -------- --------- --------- -------- ------- ------- -------- --------- ---------
 -28.000  -1.1065   0.36060   0.35487   0.1553  1.0001  0.0221  -1.8863   0.0000   0.0000   0.0000   0.3621
 -27.000  -1.0757   0.34879   0.34299   0.1454  1.0001  0.0238  -1.8223   0.0000   0.0000   0.0000   0.3590
 -26.000  -1.0432   0.33737   0.33151   0.1350  1.0001  0.0258  -1.7866   0.0000   0.0000   0.0000   0.3553
 -25.000  -1.0092   0.32603   0.32008   0.1244  1.0001  0.0282  -1.7672   0.0000   0.0000   0.0000   0.3511
 -24.000  -0.9766   0.32242   0.31646   0.1110  1.0001  0.0299  -1.8476   0.0000   0.0000   0.0000   0.3435
 -23.000  -0.9408   0.30308   0.29712   0.1030  1.0001  0.0311  -1.7430   0.0000   0.0000   0.0000   0.3409
 -22.000  -0.9048   0.28866   0.28261   0.0951  1.0001  0.0341  -1.6580   0.0000   0.0000   0.0000   0.3380
 -21.000  -0.8688   0.27612   0.27004   0.0858  1.0001  0.0378  -1.6580   0.0000   0.0000   0.0000   0.3331
 -20.000  -0.8361   0.26874   0.26267   0.0737  1.0001  0.0408  -1.7716   0.0000   0.0000   0.0000   0.3241
 -19.000  -0.7992   0.25151   0.24546   0.0661  1.0001  0.0425  -1.7343   0.0000   0.0000   0.0000   0.3197
 -18.000  -0.7613   0.23648   0.23038   0.0596  1.0001  0.0478  -1.6039   0.0000   0.0000   0.0000   0.3165
 -17.000  -0.7369   0.23009   0.22404   0.0475  1.0001  0.0533  -1.7153   0.0000   0.0000   0.0000   0.3039
 -16.000  -0.6939   0.20928   0.20323   0.0436  1.0001  0.0579  -1.5506   0.0000   0.0000   0.0000   0.3031
 -15.000  -0.6670   0.19781   0.19180   0.0346  1.0001  0.0656  -1.6343   0.0000   0.0000   0.0000   0.2931
 -14.000  -0.6342   0.18139   0.17539   0.0293  1.0001  0.0704  -1.6086   0.0000   0.0000   0.0000   0.2883
 -13.000  -0.6226   0.17109   0.16518   0.0198  1.0001  0.0794  -1.7277   0.0000   0.0000   0.0000   0.2749
 -12.000  -0.5864   0.15320   0.14732   0.0172  1.0001  0.0899  -1.6078   0.0000   0.0000   0.0000   0.2730
 -11.000  -0.5677   0.13862   0.13280   0.0119  1.0001  0.1028  -1.5952   0.0000   0.0000   0.0000   0.2653
 -10.000  -0.5524   0.12382   0.11811   0.0066  1.0001  0.1158  -1.5884   0.0000   0.0000   0.0000   0.2569
  -9.000  -0.5475   0.10958   0.10404  -0.0005  1.0001  0.1328  -1.6812   0.0000   0.0000   0.0000   0.2448
  -8.000  -0.5440   0.09424   0.08891  -0.0070  1.0001  0.1507  -1.7662   0.0000   0.0000   0.0000   0.2336
  -7.000  -0.5396   0.07865   0.07350  -0.0166  1.0001  0.1782  -1.8417   0.0000   0.0000   0.0000   0.2165
  -6.000  -0.5077   0.04912   0.04262  -0.0375  1.0001  0.0926  -2.5493   0.0000   0.0000   0.0000   0.1731
  -5.000  -0.4336   0.03174   0.02343  -0.0357  1.0001  0.0765  -2.6655   0.0000   0.0000   0.0000   0.1643
  -4.000  -0.3350   0.02241   0.01254  -0.0317  1.0001  0.0920  -2.3885   0.0000   0.0000   0.0000   0.1520
  -3.000  -0.2364   0.01554   0.00704  -0.0281  1.0001  0.3265  -2.0333   0.0000   0.0000   0.0000   0.1277
  -2.000  -0.1185   0.01296   0.00596  -0.0244  1.0001  0.9999  -1.2194   0.0000   0.0000   0.0000   0.0396
  -1.000  -0.0348   0.01311   0.00525  -0.0206  1.0001  0.9999  -0.6815   0.0000   0.0000   0.0000  -0.3467
   0.000   0.0565   0.01382   0.00549  -0.0186  1.0001  0.9999  -0.3453   0.0000   0.0000   0.0000   0.5785
   1.000   0.1459   0.01526   0.00678  -0.0179  1.0001  0.9999  -0.4427   0.0000   0.0000   0.0000   0.3704
   2.000   0.3578   0.01669   0.00850  -0.0398  0.9384  0.9999  -0.6923   0.0000   0.0000   0.0000   0.3590
   3.000   0.5406   0.01520   0.00758  -0.0473  0.8206  0.9999  -1.0916   0.0000   0.0000   0.0000   0.3348
   4.000   0.6431   0.01529   0.00733  -0.0383  0.6201  0.9999  -1.5170   0.0000   0.0000   0.0000   0.3063
   5.000   0.7330   0.01802   0.00913  -0.0313  0.3858  0.9999  -2.1524   0.0000   0.0000   0.0000   0.2886
   6.000   0.8211   0.02255   0.01285  -0.0263  0.2001  0.9999  -2.9021   0.0000   0.0000   0.0000   0.2770
   7.000   0.9136   0.02950   0.01991  -0.0221  0.1094  0.9999  -3.6354   0.0000   0.0000   0.0000   0.2682
   8.000   0.9939   0.04070   0.03213  -0.0173  0.0757  0.9999  -4.1872   0.0000   0.0000   0.0000   0.2605
   9.000   1.0026   0.05882   0.05262  -0.0099  0.0711  0.9999  -4.1043   0.0000   0.0000   0.0000   0.2524
  10.000   0.9324   0.07986   0.07454  -0.0098  0.0740  0.9999  -3.7274   0.0000   0.0000   0.0000   0.2522
  11.000   0.6526   0.12481   0.11959  -0.0336  0.1858  0.9999  -1.7120   0.0000   0.0000   0.0000   0.2949
  12.000   0.6356   0.13969   0.13444  -0.0372  0.1671  0.9999  -1.5815   0.0000   0.0000   0.0000   0.3015
  13.000   0.6206   0.15003   0.14480  -0.0396  0.1476  0.9999  -1.5027   0.0000   0.0000   0.0000   0.3062
  14.000   0.6473   0.16548   0.16033  -0.0404  0.1287  0.9999  -1.5867   0.0000   0.0000   0.0000   0.3041
  15.000   0.6455   0.17623   0.17110  -0.0444  0.1152  0.9999  -1.5044   0.0000   0.0000   0.0000   0.3097
  16.000   0.6579   0.18928   0.18418  -0.0480  0.1021  0.9999  -1.4659   0.0000   0.0000   0.0000   0.3131
  17.000   0.6697   0.20187   0.19680  -0.0520  0.0891  0.9999  -1.4640   0.0000   0.0000   0.0000   0.3169
  18.000   0.6571   0.20696   0.20190  -0.0595  0.0804  0.9999  -1.2840   0.0000   0.0000   0.0000   0.3292
  19.000   0.6711   0.21979   0.21480  -0.0640  0.0744  0.9999  -1.2665   0.0000   0.0000   0.0000   0.3330
  20.000   0.7037   0.23940   0.23449  -0.0662  0.0637  0.9999  -1.3947   0.0000   0.0000   0.0000   0.3303
  21.000   0.6962   0.24402   0.23913  -0.0743  0.0589  0.9999  -1.1665   0.0000   0.0000   0.0000   0.3420
  22.000   0.7184   0.25980   0.25504  -0.0774  0.0521  0.9999  -1.2563   0.0000   0.0000   0.0000   0.3417
  23.000   0.7240   0.27057   0.26583  -0.0841  0.0498  0.9999  -1.1608   0.0000   0.0000   0.0000   0.3487
  24.000   0.7364   0.28330   0.27864  -0.0894  0.0436  0.9999  -1.1483   0.0000   0.0000   0.0000   0.3526
  25.000   0.7561   0.30215   0.29756  -0.0927  0.0399  0.9999  -1.2437   0.0000   0.0000   0.0000   0.3522
  26.000   0.7600   0.31090   0.30641  -0.0998  0.0375  0.9999  -1.0896   0.0000   0.0000   0.0000   0.3593
  27.000   0.7710   0.32462   0.32023  -0.1051  0.0334  0.9999  -1.0484   0.0000   0.0000   0.0000   0.3625
  28.000   0.7839   0.34036   0.33607  -0.1093  0.0303  0.9999  -1.1091   0.0000   0.0000   0.0000   0.3635
  29.000   0.7921   0.35544   0.35121  -0.1146  0.0293  0.9999  -1.1031   0.0000   0.0000   0.0000   0.3669
  30.000   0.7984   0.36730   0.36319  -0.1208  0.0267  0.9999  -1.0413   0.0000   0.0000   0.0000   0.3715


