xflr5 v6.61

 Calculated polar for: SJ4_7_45

 1 1 Reynolds number fixed          Mach number fixed         

 xtrf =   1.000 (top)        1.000 (bottom)
 Mach =   0.200     Re =     0.125 e 6     Ncrit =   9.000

  alpha     CL        CD       CDp       Cm    Top Xtr Bot Xtr   Cpmin    Chinge    XCp    
 ------- -------- --------- --------- -------- ------- ------- -------- --------- ---------
 -30.000  -0.7069   0.34136   0.33770   0.0915  1.0001  0.0136  -0.9503   0.0000   0.0000   0.0000   0.3586
 -29.000  -0.6963   0.33052   0.32678   0.0851  1.0001  0.0141  -0.9918   0.0000   0.0000   0.0000   0.3532
 -28.000  -0.6850   0.31743   0.31364   0.0792  1.0001  0.0145  -1.0505   0.0000   0.0000   0.0000   0.3483
 -27.000  -0.6708   0.30303   0.29914   0.0743  1.0001  0.0156  -0.9904   0.0000   0.0000   0.0000   0.3451
 -26.000  -0.6566   0.29067   0.28671   0.0688  1.0001  0.0170  -0.9943   0.0000   0.0000   0.0000   0.3406
 -25.000  -0.6414   0.27847   0.27445   0.0632  1.0001  0.0186  -1.0045   0.0000   0.0000   0.0000   0.3357
 -24.000  -0.6257   0.26706   0.26298   0.0573  1.0001  0.0202  -1.0358   0.0000   0.0000   0.0000   0.3299
 -23.000  -0.6151   0.25981   0.25565   0.0504  1.0001  0.0208  -1.1258   0.0000   0.0000   0.0000   0.3214
 -22.000  -0.5932   0.24281   0.23862   0.0464  1.0001  0.0221  -1.0509   0.0000   0.0000   0.0000   0.3187
 -21.000  -0.5747   0.23114   0.22690   0.0416  1.0001  0.0248  -1.0341   0.0000   0.0000   0.0000   0.3139
 -20.000  -0.5567   0.22004   0.21574   0.0364  1.0001  0.0278  -1.0793   0.0000   0.0000   0.0000   0.3076
 -19.000  -0.5457   0.21312   0.20878   0.0296  1.0001  0.0298  -1.2276   0.0000   0.0000   0.0000   0.2972
 -18.000  -0.5305   0.20142   0.19708   0.0244  1.0001  0.0306  -1.2842   0.0000   0.0000   0.0000   0.2896
 -17.000  -0.5036   0.18741   0.18303   0.0217  1.0001  0.0341  -1.1151   0.0000   0.0000   0.0000   0.2874
 -16.000  -0.4874   0.17753   0.17310   0.0169  1.0001  0.0391  -1.1093   0.0000   0.0000   0.0000   0.2795
 -15.000  -0.5013   0.17647   0.17206   0.0094  1.0001  0.0412  -1.4017   0.0000   0.0000   0.0000   0.2638
 -14.000  -0.4594   0.15720   0.15278   0.0090  1.0001  0.0471  -1.2275   0.0000   0.0000   0.0000   0.2650
 -13.000  -0.4661   0.15107   0.14665   0.0041  1.0001  0.0528  -1.4087   0.0000   0.0000   0.0000   0.2545
 -12.000  -0.4535   0.13758   0.13317   0.0013  1.0001  0.0560  -1.4317   0.0000   0.0000   0.0000   0.2489
 -11.000  -0.4442   0.12519   0.12081  -0.0021  1.0001  0.0642  -1.4360   0.0000   0.0000   0.0000   0.2417
 -10.000  -0.4448   0.11031   0.10602  -0.0066  1.0001  0.0691  -1.5244   0.0000   0.0000   0.0000   0.2319
  -9.000  -0.4557   0.09570   0.09152  -0.0139  1.0001  0.0792  -1.6636   0.0000   0.0000   0.0000   0.2168
  -8.000  -0.4566   0.07910   0.07505  -0.0177  1.0001  0.0922  -1.6592   0.0000   0.0000   0.0000   0.2088
  -5.000  -0.4250   0.03023   0.02323  -0.0358  1.0001  0.0516  -2.7917   0.0000   0.0000   0.0000   0.1627
  -4.000  -0.3277   0.02070   0.01196  -0.0317  1.0001  0.0539  -2.5822   0.0000   0.0000   0.0000   0.1503
  -3.000  -0.2261   0.01475   0.00602  -0.0285  1.0001  0.0980  -2.1158   0.0000   0.0000   0.0000   0.1209
  -2.000  -0.1166   0.01029   0.00476  -0.0251  1.0001  0.9999  -1.3786   0.0000   0.0000   0.0000   0.0313
  -1.000  -0.0253   0.01049   0.00419  -0.0222  1.0001  0.9999  -0.7371   0.0000   0.0000   0.0000  -0.6312
   0.000   0.0711   0.01117   0.00447  -0.0208  1.0001  0.9999  -0.3264   0.0000   0.0000   0.0000   0.5423
   1.000   0.2245   0.01215   0.00536  -0.0314  0.9766  0.9999  -0.4826   0.0000   0.0000   0.0000   0.3881
   2.000   0.4215   0.01167   0.00518  -0.0465  0.9073  0.9999  -0.7675   0.0000   0.0000   0.0000   0.3583
   3.000   0.5380   0.01100   0.00459  -0.0420  0.7702  0.9999  -1.1129   0.0000   0.0000   0.0000   0.3257
   5.000   0.7262   0.01517   0.00696  -0.0309  0.2762  0.9999  -2.4287   0.0000   0.0000   0.0000   0.2886
   6.000   0.8169   0.01976   0.01083  -0.0272  0.1077  0.9999  -3.3142   0.0000   0.0000   0.0000   0.2784
   7.000   0.9108   0.02690   0.01829  -0.0230  0.0571  0.9999  -4.0813   0.0000   0.0000   0.0000   0.2695
   8.000   0.9873   0.03895   0.03201  -0.0174  0.0447  0.9999  -4.5448   0.0000   0.0000   0.0000   0.2610
  10.000   0.9051   0.08194   0.07781  -0.0167  0.0479  0.9999  -3.7757   0.0000   0.0000   0.0000   0.2604
  11.000   0.8395   0.12976   0.12556  -0.0449  0.1016  0.9999  -2.4230   0.0000   0.0000   0.0000   0.2957
  12.000   0.8343   0.14927   0.14497  -0.0542  0.0882  0.9999  -2.2765   0.0000   0.0000   0.0000   0.3064
  13.000   0.8575   0.16797   0.16368  -0.0570  0.0762  0.9999  -2.3325   0.0000   0.0000   0.0000   0.3069
  14.000   0.8503   0.18410   0.17969  -0.0730  0.0671  0.9999  -2.0326   0.0000   0.0000   0.0000   0.3254
  15.000   0.8726   0.20121   0.19676  -0.0810  0.0616  0.9999  -2.0174   0.0000   0.0000   0.0000   0.3313
  16.000   0.9162   0.22138   0.21701  -0.0829  0.0515  0.9999  -2.2783   0.0000   0.0000   0.0000   0.3277
  17.000   0.9281   0.23214   0.22768  -0.0993  0.0464  0.9999  -1.9632   0.0000   0.0000   0.0000   0.3429


