xflr5 v6.61

 Calculated polar for: SJ4_7_00

 1 1 Reynolds number fixed          Mach number fixed         

 xtrf =   1.000 (top)        1.000 (bottom)
 Mach =   0.200     Re =     0.100 e 6     Ncrit =   9.000

  alpha     CL        CD       CDp       Cm    Top Xtr Bot Xtr   Cpmin    Chinge    XCp    
 ------- -------- --------- --------- -------- ------- ------- -------- --------- ---------
 -24.000  -0.6321   0.26799   0.26347   0.0585  1.0001  0.0223  -1.0407   0.0000   0.0000   0.0000   0.3313
 -23.000  -0.6152   0.25589   0.25128   0.0533  1.0001  0.0244  -0.9898   0.0000   0.0000   0.0000   0.3267
 -22.000  -0.5982   0.24442   0.23975   0.0479  1.0001  0.0277  -0.9647   0.0000   0.0000   0.0000   0.3212
 -21.000  -0.5857   0.23693   0.23222   0.0413  1.0001  0.0297  -1.1072   0.0000   0.0000   0.0000   0.3125
 -20.000  -0.5703   0.22519   0.22043   0.0359  1.0001  0.0306  -1.1955   0.0000   0.0000   0.0000   0.3056
 -19.000  -0.5454   0.21039   0.20558   0.0326  1.0001  0.0340  -1.0952   0.0000   0.0000   0.0000   0.3033
 -18.000  -0.5274   0.19981   0.19496   0.0277  1.0001  0.0380  -1.1092   0.0000   0.0000   0.0000   0.2968
 -17.000  -0.5209   0.19439   0.18952   0.0211  1.0001  0.0409  -1.2461   0.0000   0.0000   0.0000   0.2852
 -16.000  -0.4949   0.17899   0.17409   0.0182  1.0001  0.0442  -1.1394   0.0000   0.0000   0.0000   0.2821
 -15.000  -0.4799   0.16952   0.16460   0.0140  1.0001  0.0515  -1.1262   0.0000   0.0000   0.0000   0.2748
 -14.000  -0.5016   0.16967   0.16477   0.0073  1.0001  0.0535  -1.4129   0.0000   0.0000   0.0000   0.2606
 -13.000  -0.4586   0.14998   0.14507   0.0072  1.0001  0.0615  -1.2561   0.0000   0.0000   0.0000   0.2620
 -12.000  -0.4799   0.14472   0.13987   0.0000  1.0001  0.0663  -1.5242   0.0000   0.0000   0.0000   0.2466
 -11.000  -0.4463   0.12744   0.12256   0.0004  1.0001  0.0755  -1.3737   0.0000   0.0000   0.0000   0.2477
  -7.000  -0.5356   0.07883   0.07420  -0.0147  1.0001  0.1167  -1.8230   0.0000   0.0000   0.0000   0.2203
  -5.000  -0.4236   0.03734   0.03081  -0.0377  1.0001  0.0830  -2.3457   0.0000   0.0000   0.0000   0.1589
  -4.000  -0.3226   0.02358   0.01484  -0.0345  1.0001  0.0621  -2.4829   0.0000   0.0000   0.0000   0.1403
  -3.000  -0.2185   0.01679   0.00745  -0.0307  1.0001  0.0888  -2.0804   0.0000   0.0000   0.0000   0.1069
  -2.000  -0.1098   0.01106   0.00486  -0.0265  1.0001  0.9999  -1.4967   0.0000   0.0000   0.0000   0.0050
  -1.000  -0.0166   0.01120   0.00409  -0.0237  1.0001  0.9999  -0.7781   0.0000   0.0000   0.0000  -1.1841
   0.000   0.0803   0.01176   0.00419  -0.0221  1.0001  0.9999  -0.3188   0.0000   0.0000   0.0000   0.5240
   1.000   0.1755   0.01286   0.00518  -0.0214  1.0001  0.9999  -0.4304   0.0000   0.0000   0.0000   0.3704
   2.000   0.3763   0.01376   0.00640  -0.0407  0.9463  0.9999  -0.6923   0.0000   0.0000   0.0000   0.3562
   3.000   0.5401   0.01259   0.00577  -0.0453  0.8236  0.9999  -1.1336   0.0000   0.0000   0.0000   0.3315
   4.000   0.6373   0.01328   0.00592  -0.0365  0.5786  0.9999  -1.7585   0.0000   0.0000   0.0000   0.3043
   5.000   0.7249   0.01662   0.00797  -0.0305  0.2734  0.9999  -2.6054   0.0000   0.0000   0.0000   0.2883
   6.000   0.8135   0.02262   0.01315  -0.0261  0.0991  0.9999  -3.4143   0.0000   0.0000   0.0000   0.2774
   7.000   0.9090   0.03219   0.02361  -0.0217  0.0590  0.9999  -4.0925   0.0000   0.0000   0.0000   0.2684
   8.000   0.9708   0.04795   0.04105  -0.0163  0.0520  0.9999  -4.3349   0.0000   0.0000   0.0000   0.2606
  10.000   0.7300   0.09290   0.08847  -0.0203  0.0705  0.9999  -2.6867   0.0000   0.0000   0.0000   0.2714
  11.000   0.8292   0.13573   0.13100  -0.0526  0.1178  0.9999  -2.2236   0.0000   0.0000   0.0000   0.3062
  12.000   0.8447   0.15483   0.15009  -0.0558  0.1019  0.9999  -2.2201   0.0000   0.0000   0.0000   0.3080
  13.000   0.8612   0.17360   0.16882  -0.0615  0.0890  0.9999  -2.2267   0.0000   0.0000   0.0000   0.3123
  14.000   0.8606   0.18788   0.18300  -0.0744  0.0782  0.9999  -2.0459   0.0000   0.0000   0.0000   0.3265
  15.000   0.8778   0.20381   0.19887  -0.0845  0.0700  0.9999  -1.9487   0.0000   0.0000   0.0000   0.3352
  16.000   0.9070   0.21980   0.21482  -0.0919  0.0616  0.9999  -1.9741   0.0000   0.0000   0.0000   0.3390
  17.000   0.9408   0.23523   0.23031  -0.0988  0.0529  0.9999  -2.0391   0.0000   0.0000   0.0000   0.3414
  18.000   0.9691   0.25006   0.24510  -0.1098  0.0494  0.9999  -1.9072   0.0000   0.0000   0.0000   0.3484
  19.000   1.0031   0.26425   0.25931  -0.1190  0.0427  0.9999  -1.8937   0.0000   0.0000   0.0000   0.3522
  20.000   1.0389   0.28227   0.27733  -0.1260  0.0396  0.9999  -2.0306   0.0000   0.0000   0.0000   0.3533
  21.000   1.0711   0.29281   0.28791  -0.1389  0.0342  0.9999  -1.9576   0.0000   0.0000   0.0000   0.3601
  22.000   1.1067   0.30830   0.30347  -0.1463  0.0305  0.9999  -2.1296   0.0000   0.0000   0.0000   0.3608
  23.000   1.1403   0.32497   0.32013  -0.1558  0.0293  0.9999  -2.1278   0.0000   0.0000   0.0000   0.3634
  24.000   1.1739   0.33400   0.32918  -0.1693  0.0266  0.9999  -1.9777   0.0000   0.0000   0.0000   0.3690
  25.000   1.2071   0.34693   0.34219  -0.1797  0.0235  0.9999  -1.9776   0.0000   0.0000   0.0000   0.3715


