xflr5 v6.61

 Calculated polar for: SJ4_12_86

 1 1 Reynolds number fixed          Mach number fixed         

 xtrf =   1.000 (top)        1.000 (bottom)
 Mach =   0.200     Re =     0.025 e 6     Ncrit =   9.000

  alpha     CL        CD       CDp       Cm    Top Xtr Bot Xtr   Cpmin    Chinge    XCp    
 ------- -------- --------- --------- -------- ------- ------- -------- --------- ---------
 -25.000  -0.9124   0.31616   0.30491   0.0946  1.0001  0.1471  -1.6668   0.0000   0.0000   0.0000   0.3217
 -24.000  -0.8770   0.30380   0.29249   0.0854  1.0001  0.1557  -1.6238   0.0000   0.0000   0.0000   0.3173
 -23.000  -0.8457   0.29612   0.28481   0.0754  1.0001  0.1671  -1.6252   0.0000   0.0000   0.0000   0.3112
 -22.000  -0.8158   0.29028   0.27893   0.0661  1.0001  0.1810  -1.6208   0.0000   0.0000   0.0000   0.3050
 -21.000  -0.7762   0.27445   0.26307   0.0585  1.0001  0.1963  -1.5655   0.0000   0.0000   0.0000   0.3009
 -20.000  -0.7435   0.26419   0.25281   0.0505  1.0001  0.2128  -1.5483   0.0000   0.0000   0.0000   0.2951
 -19.000  -0.7039   0.24837   0.23701   0.0437  1.0001  0.2306  -1.5149   0.0000   0.0000   0.0000   0.2905
 -18.000  -0.6608   0.23212   0.22072   0.0379  1.0001  0.2540  -1.4565   0.0000   0.0000   0.0000   0.2868
 -17.000  -0.6361   0.22456   0.21322   0.0313  1.0001  0.2782  -1.4589   0.0000   0.0000   0.0000   0.2802
 -16.000  -0.5927   0.20783   0.19650   0.0265  1.0001  0.3087  -1.4199   0.0000   0.0000   0.0000   0.2766
 -15.000  -0.5577   0.19443   0.18314   0.0221  1.0001  0.3417  -1.3921   0.0000   0.0000   0.0000   0.2725
 -14.000  -0.5364   0.18468   0.17347   0.0188  1.0001  0.3794  -1.3934   0.0000   0.0000   0.0000   0.2691
 -13.000  -0.4946   0.16853   0.15734   0.0164  1.0001  0.4287  -1.3601   0.0000   0.0000   0.0000   0.2677
 -12.000  -0.4656   0.15535   0.14421   0.0153  1.0001  0.4833  -1.3364   0.0000   0.0000   0.0000   0.2681
 -11.000  -0.4251   0.14006   0.12890   0.0148  1.0001  0.5532  -1.2999   0.0000   0.0000   0.0000   0.2701
 -10.000  -0.3790   0.12464   0.11342   0.0144  1.0001  0.6404  -1.2392   0.0000   0.0000   0.0000   0.2733
  -9.000  -0.3251   0.10916   0.09780   0.0130  1.0001  0.7431  -1.1638   0.0000   0.0000   0.0000   0.2746
  -7.000  -0.4856   0.07912   0.06862  -0.0044  1.0001  0.4053  -1.6892   0.0000   0.0000   0.0000   0.2331
  -6.000  -0.5426   0.06200   0.05173  -0.0042  1.0001  0.4100  -1.8527   0.0000   0.0000   0.0000   0.2360
  -5.000  -0.5282   0.04929   0.03877   0.0015  1.0001  0.4695  -1.7583   0.0000   0.0000   0.0000   0.2473
  -4.000  -0.4761   0.04095   0.03017   0.0109  1.0001  0.5838  -1.5297   0.0000   0.0000   0.0000   0.2678
  -3.000  -0.3832   0.03738   0.02652   0.0250  1.0001  0.7807  -1.2089   0.0000   0.0000   0.0000   0.3102
  -2.000  -0.0512   0.03134   0.01857  -0.0256  1.0001  0.9999  -0.7166   0.0000   0.0000   0.0000  -0.2705
  -1.000  -0.0925   0.02935   0.01624  -0.0107  1.0001  0.9999  -0.6893   0.0000   0.0000   0.0000   0.1271
   0.000  -0.0675   0.03005   0.01627  -0.0027  1.0001  0.9999  -0.5864   0.0000   0.0000   0.0000   0.2068
   1.000  -0.0168   0.03242   0.01818   0.0002  1.0001  0.9999  -0.4809   0.0000   0.0000   0.0000   0.2768
   2.000   0.0371   0.03630   0.02184   0.0002  1.0001  0.9999  -0.5411   0.0000   0.0000   0.0000   0.2225
   3.000   0.0888   0.04174   0.02723  -0.0018  1.0001  0.9999  -0.5988   0.0000   0.0000   0.0000   0.2555
   4.000   0.3016   0.05323   0.03906  -0.0323  0.8774  0.9999  -0.8048   0.0000   0.0000   0.0000   0.3493
   5.000   0.4398   0.06178   0.04804  -0.0429  0.7617  0.9999  -0.9809   0.0000   0.0000   0.0000   0.3403
   6.000   0.5138   0.07123   0.05783  -0.0440  0.6747  0.9999  -1.0990   0.0000   0.0000   0.0000   0.3280
   7.000   0.5687   0.08287   0.06978  -0.0445  0.6097  0.9999  -1.1953   0.0000   0.0000   0.0000   0.3198
   8.000   0.5568   0.09781   0.08485  -0.0459  0.6023  0.9999  -1.1627   0.0000   0.0000   0.0000   0.3228
  10.000   0.5260   0.12797   0.11535  -0.0558  0.7472  0.9999  -1.0498   0.0000   0.0000   0.0000   0.3432
  11.000   0.5751   0.14284   0.13049  -0.0588  0.6759  0.9999  -1.1194   0.0000   0.0000   0.0000   0.3389
  12.000   0.6218   0.15790   0.14581  -0.0615  0.6092  0.9999  -1.2005   0.0000   0.0000   0.0000   0.3347
  13.000   0.6542   0.17027   0.15839  -0.0632  0.5493  0.9999  -1.2656   0.0000   0.0000   0.0000   0.3315
  14.000   0.6991   0.18588   0.17423  -0.0666  0.4947  0.9999  -1.3562   0.0000   0.0000   0.0000   0.3291
  15.000   0.7328   0.19890   0.18741  -0.0700  0.4462  0.9999  -1.4215   0.0000   0.0000   0.0000   0.3281
  16.000   0.7676   0.21247   0.20112  -0.0745  0.4043  0.9999  -1.4801   0.0000   0.0000   0.0000   0.3283
  17.000   0.8049   0.22621   0.21501  -0.0795  0.3637  0.9999  -1.5454   0.0000   0.0000   0.0000   0.3286
  18.000   0.8434   0.24078   0.22973  -0.0853  0.3291  0.9999  -1.6050   0.0000   0.0000   0.0000   0.3294
  19.000   0.8760   0.25275   0.24179  -0.0921  0.2995  0.9999  -1.6366   0.0000   0.0000   0.0000   0.3317
  20.000   0.9132   0.26714   0.25626  -0.0993  0.2744  0.9999  -1.6884   0.0000   0.0000   0.0000   0.3335
  21.000   0.9491   0.27986   0.26912  -0.1069  0.2490  0.9999  -1.7247   0.0000   0.0000   0.0000   0.3355
  22.000   0.9901   0.29820   0.28755  -0.1142  0.2292  0.9999  -1.7939   0.0000   0.0000   0.0000   0.3364
  23.000   1.0194   0.30628   0.29571  -0.1239  0.2117  0.9999  -1.8017   0.0000   0.0000   0.0000   0.3402
  24.000   1.0525   0.31740   0.30693  -0.1333  0.1951  0.9999  -1.8314   0.0000   0.0000   0.0000   0.3430
  25.000   1.0868   0.33021   0.31985  -0.1426  0.1807  0.9999  -1.8713   0.0000   0.0000   0.0000   0.3452
  26.000   1.1211   0.34392   0.33369  -0.1520  0.1669  0.9999  -1.9053   0.0000   0.0000   0.0000   0.3471
  27.000   1.1583   0.36369   0.35361  -0.1605  0.1536  0.9999  -1.9889   0.0000   0.0000   0.0000   0.3476
  28.000   1.1834   0.36447   0.35451  -0.1730  0.1424  0.9999  -1.9784   0.0000   0.0000   0.0000   0.3521
  29.000   1.2124   0.37414   0.36428  -0.1843  0.1343  0.9999  -1.9841   0.0000   0.0000   0.0000   0.3549
  30.000   1.2447   0.39204   0.38235  -0.1935  0.1250  0.9999  -2.0663   0.0000   0.0000   0.0000   0.3554


