xflr5 v6.61

 Calculated polar for: SJ4_12_86

 1 1 Reynolds number fixed          Mach number fixed         

 xtrf =   1.000 (top)        1.000 (bottom)
 Mach =   0.200     Re =     0.100 e 6     Ncrit =   9.000

  alpha     CL        CD       CDp       Cm    Top Xtr Bot Xtr   Cpmin    Chinge    XCp    
 ------- -------- --------- --------- -------- ------- ------- -------- --------- ---------
 -29.000  -1.0496   0.35407   0.34857   0.1415  1.0001  0.0309  -1.8647   0.0000   0.0000   0.0000   0.3428
 -28.000  -1.0179   0.34429   0.33874   0.1294  1.0001  0.0336  -1.9081   0.0000   0.0000   0.0000   0.3376
 -27.000  -0.9850   0.33218   0.32659   0.1196  1.0001  0.0351  -1.8382   0.0000   0.0000   0.0000   0.3344
 -26.000  -0.9509   0.32109   0.31546   0.1091  1.0001  0.0384  -1.7889   0.0000   0.0000   0.0000   0.3300
 -25.000  -0.9168   0.30928   0.30361   0.0986  1.0001  0.0406  -1.7954   0.0000   0.0000   0.0000   0.3250
 -24.000  -0.8811   0.29762   0.29191   0.0888  1.0001  0.0446  -1.7529   0.0000   0.0000   0.0000   0.3202
 -23.000  -0.8465   0.28543   0.27971   0.0783  1.0001  0.0469  -1.7565   0.0000   0.0000   0.0000   0.3138
 -22.000  -0.8098   0.27355   0.26780   0.0689  1.0001  0.0525  -1.7140   0.0000   0.0000   0.0000   0.3083
 -21.000  -0.7735   0.26040   0.25465   0.0600  1.0001  0.0555  -1.6930   0.0000   0.0000   0.0000   0.3024
 -20.000  -0.7419   0.24993   0.24417   0.0490  1.0001  0.0616  -1.7345   0.0000   0.0000   0.0000   0.2926
 -19.000  -0.7006   0.23469   0.22893   0.0428  1.0001  0.0664  -1.6214   0.0000   0.0000   0.0000   0.2890
 -18.000  -0.6735   0.22256   0.21684   0.0320  1.0001  0.0724  -1.7220   0.0000   0.0000   0.0000   0.2768
 -17.000  -0.6343   0.20867   0.20294   0.0257  1.0001  0.0808  -1.6370   0.0000   0.0000   0.0000   0.2712
 -16.000  -0.5995   0.19450   0.18879   0.0192  1.0001  0.0883  -1.5847   0.0000   0.0000   0.0000   0.2638
 -13.000  -0.5641   0.15451   0.14901  -0.0070  1.0001  0.1209  -1.8621   0.0000   0.0000   0.0000   0.2232
 -12.000  -0.5390   0.13806   0.13259  -0.0111  1.0001  0.1349  -1.8361   0.0000   0.0000   0.0000   0.2161
 -10.000  -0.7017   0.06257   0.05704  -0.0530  1.0001  0.0793  -3.5175   0.0000   0.0000   0.0000   0.1630
  -9.000  -0.7824   0.04535   0.03865  -0.0440  1.0001  0.0794  -3.8528   0.0000   0.0000   0.0000   0.1837
  -8.000  -0.7611   0.03513   0.02724  -0.0339  1.0001  0.0910  -3.6666   0.0000   0.0000   0.0000   0.1964
  -7.000  -0.6985   0.02851   0.01987  -0.0264  1.0001  0.1147  -3.2618   0.0000   0.0000   0.0000   0.2039
  -6.000  -0.6187   0.02405   0.01505  -0.0208  1.0001  0.1541  -2.7694   0.0000   0.0000   0.0000   0.2088
  -5.000  -0.5312   0.02112   0.01204  -0.0165  1.0001  0.2137  -2.2466   0.0000   0.0000   0.0000   0.2119
  -4.000  -0.4390   0.01904   0.01041  -0.0135  1.0001  0.3045  -1.7468   0.0000   0.0000   0.0000   0.2128
  -3.000  -0.3459   0.01776   0.00982  -0.0111  1.0001  0.4487  -1.3307   0.0000   0.0000   0.0000   0.2118
  -2.000  -0.2494   0.01727   0.01045  -0.0089  0.9968  0.6679  -1.0173   0.0000   0.0000   0.0000   0.2086
  -1.000  -0.0609   0.01853   0.01220  -0.0184  0.9580  0.9540  -0.6724   0.0000   0.0000   0.0000  -0.0635
   0.000   0.2364   0.01804   0.01130  -0.0545  0.9187  0.9999  -0.6298   0.0000   0.0000   0.0000   0.4793
   1.000   0.3863   0.01610   0.00921  -0.0593  0.8473  0.9999  -0.8067   0.0000   0.0000   0.0000   0.4007
   2.000   0.4853   0.01499   0.00779  -0.0529  0.7513  0.9999  -0.9759   0.0000   0.0000   0.0000   0.3552
   3.000   0.5772   0.01526   0.00751  -0.0462  0.6392  0.9999  -1.1667   0.0000   0.0000   0.0000   0.3252
   4.000   0.6664   0.01643   0.00810  -0.0400  0.5292  0.9999  -1.3853   0.0000   0.0000   0.0000   0.3042
   5.000   0.7563   0.01817   0.00937  -0.0346  0.4308  0.9999  -1.6428   0.0000   0.0000   0.0000   0.2891
   6.000   0.8483   0.02038   0.01124  -0.0302  0.3475  0.9999  -1.9459   0.0000   0.0000   0.0000   0.2779
   7.000   0.9410   0.02310   0.01376  -0.0263  0.2796  0.9999  -2.3041   0.0000   0.0000   0.0000   0.2691
   8.000   1.0312   0.02651   0.01722  -0.0223  0.2254  0.9999  -2.7412   0.0000   0.0000   0.0000   0.2616
   9.000   1.1198   0.03070   0.02143  -0.0185  0.1830  0.9999  -3.2642   0.0000   0.0000   0.0000   0.2552
  10.000   1.1909   0.03600   0.02734  -0.0127  0.1502  0.9999  -3.7812   0.0000   0.0000   0.0000   0.2480
  11.000   1.2498   0.04246   0.03424  -0.0064  0.1248  0.9999  -4.3035   0.0000   0.0000   0.0000   0.2411
  12.000   1.2447   0.05133   0.04415   0.0052  0.1092  0.9999  -4.5699   0.0000   0.0000   0.0000   0.2303
  13.000   1.2119   0.06292   0.05638   0.0129  0.0989  0.9999  -4.7122   0.0000   0.0000   0.0000   0.2221
  14.000   1.0612   0.09324   0.08768   0.0022  0.0997  0.9999  -4.1309   0.0000   0.0000   0.0000   0.2287
  16.000   0.5626   0.16988   0.16475  -0.0315  0.1495  0.9999  -1.2266   0.0000   0.0000   0.0000   0.2920
  17.000   0.5714   0.18031   0.17527  -0.0357  0.1327  0.9999  -1.2116   0.0000   0.0000   0.0000   0.2978
  18.000   0.5832   0.19117   0.18622  -0.0401  0.1184  0.9999  -1.2023   0.0000   0.0000   0.0000   0.3032
  19.000   0.5957   0.20236   0.19748  -0.0448  0.1062  0.9999  -1.1815   0.0000   0.0000   0.0000   0.3087
  20.000   0.6097   0.21394   0.20913  -0.0494  0.0964  0.9999  -1.1780   0.0000   0.0000   0.0000   0.3136
  21.000   0.6351   0.22777   0.22305  -0.0526  0.0875  0.9999  -1.2486   0.0000   0.0000   0.0000   0.3140
  23.000   0.6509   0.24939   0.24482  -0.0645  0.0699  0.9999  -1.1298   0.0000   0.0000   0.0000   0.3280
  24.000   0.6642   0.26211   0.25761  -0.0697  0.0650  0.9999  -1.1206   0.0000   0.0000   0.0000   0.3325
  26.000   1.1329   0.33695   0.33185  -0.1544  0.0497  0.9999  -2.1461   0.0000   0.0000   0.0000   0.3469
  27.000   1.1618   0.34634   0.34128  -0.1680  0.0445  0.9999  -2.0717   0.0000   0.0000   0.0000   0.3525
  28.000   1.1928   0.35868   0.35368  -0.1789  0.0420  0.9999  -2.0934   0.0000   0.0000   0.0000   0.3551
  29.000   1.2234   0.37005   0.36512  -0.1896  0.0373  0.9999  -2.1729   0.0000   0.0000   0.0000   0.3570
  30.000   1.2520   0.38150   0.37663  -0.2020  0.0351  0.9999  -2.1378   0.0000   0.0000   0.0000   0.3603


