xflr5 v6.61

 Calculated polar for: SJ4_8_70

 1 1 Reynolds number fixed          Mach number fixed         

 xtrf =   1.000 (top)        1.000 (bottom)
 Mach =   0.200     Re =     0.060 e 6     Ncrit =   9.000

  alpha     CL        CD       CDp       Cm    Top Xtr Bot Xtr   Cpmin    Chinge    XCp    
 ------- -------- --------- --------- -------- ------- ------- -------- --------- ---------
 -20.000  -0.8210   0.26202   0.25497   0.0727  1.0001  0.0598  -1.6226   0.0000   0.0000   0.0000   0.3233
 -19.000  -0.7890   0.25296   0.24591   0.0620  1.0001  0.0661  -1.6437   0.0000   0.0000   0.0000   0.3147
 -18.000  -0.7506   0.23605   0.22903   0.0553  1.0001  0.0704  -1.5888   0.0000   0.0000   0.0000   0.3109
 -17.000  -0.7232   0.22736   0.22034   0.0452  1.0001  0.0795  -1.6550   0.0000   0.0000   0.0000   0.3011
 -16.000  -0.6823   0.20917   0.20216   0.0403  1.0001  0.0878  -1.5629   0.0000   0.0000   0.0000   0.2985
 -15.000  -0.6561   0.19662   0.18969   0.0320  1.0001  0.0956  -1.5991   0.0000   0.0000   0.0000   0.2892
 -14.000  -0.6395   0.18681   0.17992   0.0238  1.0001  0.1070  -1.6384   0.0000   0.0000   0.0000   0.2787
 -13.000  -0.6079   0.17036   0.16352   0.0191  1.0001  0.1204  -1.5756   0.0000   0.0000   0.0000   0.2737
 -12.000  -0.5995   0.15824   0.15152   0.0120  1.0001  0.1353  -1.6612   0.0000   0.0000   0.0000   0.2632
 -11.000  -0.5600   0.13960   0.13291   0.0105  1.0001  0.1535  -1.5859   0.0000   0.0000   0.0000   0.2624
 -10.000  -0.5473   0.12581   0.11923   0.0059  1.0001  0.1762  -1.6108   0.0000   0.0000   0.0000   0.2552
  -9.000  -0.5304   0.11103   0.10459   0.0030  1.0001  0.2033  -1.5959   0.0000   0.0000   0.0000   0.2507
  -8.000  -0.5236   0.09702   0.09078   0.0002  1.0001  0.2396  -1.5933   0.0000   0.0000   0.0000   0.2462
  -7.000  -0.5266   0.08355   0.07759  -0.0024  1.0001  0.2818  -1.6396   0.0000   0.0000   0.0000   0.2422
  -6.000  -0.5224   0.04659   0.03899  -0.0366  1.0001  0.1056  -2.5834   0.0000   0.0000   0.0000   0.1763
  -5.000  -0.4461   0.03205   0.02226  -0.0340  1.0001  0.1075  -2.6185   0.0000   0.0000   0.0000   0.1701
  -4.000  -0.3494   0.02341   0.01304  -0.0299  1.0001  0.1569  -2.2759   0.0000   0.0000   0.0000   0.1606
  -3.000  -0.2593   0.01692   0.00864  -0.0237  1.0001  0.5360  -1.8344   0.0000   0.0000   0.0000   0.1551
  -2.000  -0.1201   0.01535   0.00719  -0.0235  1.0001  0.9999  -1.0717   0.0000   0.0000   0.0000   0.0497
  -1.000  -0.0483   0.01543   0.00640  -0.0182  1.0001  0.9999  -0.6382   0.0000   0.0000   0.0000  -0.1329
   0.000   0.0370   0.01620   0.00665  -0.0156  1.0001  0.9999  -0.3711   0.0000   0.0000   0.0000   0.6717
   1.000   0.1216   0.01778   0.00804  -0.0146  1.0001  0.9999  -0.4454   0.0000   0.0000   0.0000   0.3671
   2.000   0.2739   0.02066   0.01108  -0.0284  0.9655  0.9999  -0.6232   0.0000   0.0000   0.0000   0.3507
   3.000   0.5197   0.02008   0.01132  -0.0497  0.8440  0.9999  -1.0109   0.0000   0.0000   0.0000   0.3426
   4.000   0.6457   0.01871   0.01008  -0.0419  0.6721  0.9999  -1.4218   0.0000   0.0000   0.0000   0.3113
   5.000   0.7372   0.02091   0.01149  -0.0325  0.4595  0.9999  -1.9443   0.0000   0.0000   0.0000   0.2898
   6.000   0.8267   0.02538   0.01530  -0.0264  0.2837  0.9999  -2.5812   0.0000   0.0000   0.0000   0.2767
   8.000   0.9956   0.04236   0.03311  -0.0164  0.1192  0.9999  -3.7764   0.0000   0.0000   0.0000   0.2594
   9.000   1.0179   0.05880   0.05145  -0.0097  0.1028  0.9999  -3.8583   0.0000   0.0000   0.0000   0.2517
  10.000   0.9553   0.07959   0.07332  -0.0070  0.1038  0.9999  -3.5466   0.0000   0.0000   0.0000   0.2487
  13.000   0.8323   0.17417   0.16776  -0.0603  0.1876  0.9999  -1.9590   0.0000   0.0000   0.0000   0.3124
  14.000   0.8216   0.18576   0.17923  -0.0700  0.1657  0.9999  -1.8313   0.0000   0.0000   0.0000   0.3239
  15.000   0.8719   0.20755   0.20113  -0.0721  0.1456  0.9999  -1.9764   0.0000   0.0000   0.0000   0.3204
  16.000   0.8784   0.21773   0.21122  -0.0825  0.1304  0.9999  -1.8628   0.0000   0.0000   0.0000   0.3302
  17.000   0.9068   0.23230   0.22578  -0.0906  0.1165  0.9999  -1.8587   0.0000   0.0000   0.0000   0.3349
  18.000   0.9420   0.24883   0.24233  -0.0977  0.1041  0.9999  -1.9273   0.0000   0.0000   0.0000   0.3373
  19.000   0.9814   0.26770   0.26126  -0.1043  0.0915  0.9999  -2.0140   0.0000   0.0000   0.0000   0.3383
  20.000   1.0029   0.27381   0.26734  -0.1177  0.0824  0.9999  -1.8922   0.0000   0.0000   0.0000   0.3476
  21.000   1.0369   0.28824   0.28178  -0.1271  0.0763  0.9999  -1.8814   0.0000   0.0000   0.0000   0.3511


