xflr5 v6.61

 Calculated polar for: SJ4_8_00

 1 1 Reynolds number fixed          Mach number fixed         

 xtrf =   1.000 (top)        1.000 (bottom)
 Mach =   0.200     Re =     0.090 e 6     Ncrit =   9.000

  alpha     CL        CD       CDp       Cm    Top Xtr Bot Xtr   Cpmin    Chinge    XCp    
 ------- -------- --------- --------- -------- ------- ------- -------- --------- ---------
 -26.000  -1.0432   0.33796   0.33245   0.1345  1.0001  0.0221  -1.8701   0.0000   0.0000   0.0000   0.3548
 -25.000  -1.0102   0.32560   0.32001   0.1250  1.0001  0.0239  -1.7761   0.0000   0.0000   0.0000   0.3516
 -24.000  -0.9758   0.31363   0.30799   0.1151  1.0001  0.0262  -1.7155   0.0000   0.0000   0.0000   0.3475
 -23.000  -0.9401   0.30343   0.29776   0.1038  1.0001  0.0293  -1.7141   0.0000   0.0000   0.0000   0.3418
 -22.000  -0.9122   0.30308   0.29744   0.0900  1.0001  0.0300  -1.8869   0.0000   0.0000   0.0000   0.3318
 -21.000  -0.8696   0.27602   0.27031   0.0856  1.0001  0.0322  -1.7126   0.0000   0.0000   0.0000   0.3327
 -20.000  -0.8333   0.26285   0.25711   0.0772  1.0001  0.0356  -1.6615   0.0000   0.0000   0.0000   0.3284
 -19.000  -0.7974   0.25068   0.24494   0.0675  1.0001  0.0398  -1.6809   0.0000   0.0000   0.0000   0.3217
 -18.000  -0.7761   0.24794   0.24222   0.0541  1.0001  0.0412  -1.8621   0.0000   0.0000   0.0000   0.3081
 -17.000  -0.7270   0.22256   0.21682   0.0518  1.0001  0.0463  -1.5807   0.0000   0.0000   0.0000   0.3105
 -16.000  -0.6985   0.21203   0.20632   0.0416  1.0001  0.0529  -1.6300   0.0000   0.0000   0.0000   0.2999
 -15.000  -0.6643   0.19510   0.18944   0.0358  1.0001  0.0561  -1.6261   0.0000   0.0000   0.0000   0.2950
 -14.000  -0.6342   0.18129   0.17561   0.0293  1.0001  0.0640  -1.6201   0.0000   0.0000   0.0000   0.2883
 -13.000  -0.6130   0.16693   0.16134   0.0218  1.0001  0.0686  -1.6904   0.0000   0.0000   0.0000   0.2785
 -12.000  -0.5931   0.15351   0.14797   0.0154  1.0001  0.0787  -1.6969   0.0000   0.0000   0.0000   0.2696
 -11.000  -0.5679   0.13759   0.13212   0.0116  1.0001  0.0892  -1.6268   0.0000   0.0000   0.0000   0.2647
 -10.000  -0.5526   0.12271   0.11731   0.0061  1.0001  0.1016  -1.6193   0.0000   0.0000   0.0000   0.2561
  -9.000  -0.5413   0.10775   0.10249   0.0002  1.0001  0.1152  -1.6723   0.0000   0.0000   0.0000   0.2461
  -8.000  -0.5448   0.09307   0.08803  -0.0091  1.0001  0.1330  -1.8068   0.0000   0.0000   0.0000   0.2298
  -7.000  -0.5339   0.07667   0.07180  -0.0171  1.0001  0.1530  -1.8579   0.0000   0.0000   0.0000   0.2152
  -5.000  -0.4330   0.03002   0.02174  -0.0355  1.0001  0.0686  -2.7584   0.0000   0.0000   0.0000   0.1647
  -4.000  -0.3346   0.02131   0.01178  -0.0314  1.0001  0.0827  -2.4156   0.0000   0.0000   0.0000   0.1528
  -3.000  -0.2352   0.01496   0.00660  -0.0281  1.0001  0.2952  -2.0477   0.0000   0.0000   0.0000   0.1271
  -2.000  -0.1193   0.01230   0.00574  -0.0243  1.0001  0.9999  -1.2275   0.0000   0.0000   0.0000   0.0419
  -1.000  -0.0346   0.01248   0.00509  -0.0206  1.0001  0.9999  -0.6843   0.0000   0.0000   0.0000  -0.3519
   0.000   0.0575   0.01322   0.00538  -0.0188  1.0001  0.9999  -0.3446   0.0000   0.0000   0.0000   0.5769
   1.000   0.1507   0.01470   0.00673  -0.0190  0.9987  0.9999  -0.4459   0.0000   0.0000   0.0000   0.3739
   2.000   0.3899   0.01524   0.00758  -0.0442  0.9230  0.9999  -0.7289   0.0000   0.0000   0.0000   0.3611
   3.000   0.5433   0.01383   0.00656  -0.0458  0.8031  0.9999  -1.1035   0.0000   0.0000   0.0000   0.3316
   4.000   0.6417   0.01440   0.00665  -0.0374  0.5956  0.9999  -1.5230   0.0000   0.0000   0.0000   0.3050
   5.000   0.7325   0.01712   0.00841  -0.0313  0.3669  0.9999  -2.1688   0.0000   0.0000   0.0000   0.2886
   6.000   0.8214   0.02143   0.01197  -0.0267  0.1864  0.9999  -2.9365   0.0000   0.0000   0.0000   0.2774
   7.000   0.9133   0.02786   0.01839  -0.0227  0.0992  0.9999  -3.7050   0.0000   0.0000   0.0000   0.2688
   8.000   0.9955   0.03858   0.03043  -0.0175  0.0687  0.9999  -4.2428   0.0000   0.0000   0.0000   0.2606
   9.000   1.0186   0.05481   0.04853  -0.0105  0.0605  0.9999  -4.3604   0.0000   0.0000   0.0000   0.2526
  10.000   0.9647   0.07421   0.06899  -0.0066  0.0623  0.9999  -4.0769   0.0000   0.0000   0.0000   0.2484
  11.000   0.6556   0.12333   0.11841  -0.0325  0.1677  0.9999  -1.7462   0.0000   0.0000   0.0000   0.2930
  12.000   0.6396   0.13782   0.13288  -0.0363  0.1467  0.9999  -1.6348   0.0000   0.0000   0.0000   0.2995
  13.000   0.6259   0.14919   0.14426  -0.0389  0.1329  0.9999  -1.5481   0.0000   0.0000   0.0000   0.3044
  14.000   0.6530   0.16477   0.15993  -0.0395  0.1154  0.9999  -1.6411   0.0000   0.0000   0.0000   0.3021
  15.000   0.6627   0.17825   0.17344  -0.0428  0.1023  0.9999  -1.6091   0.0000   0.0000   0.0000   0.3054
  16.000   0.6449   0.18413   0.17931  -0.0491  0.0905  0.9999  -1.4222   0.0000   0.0000   0.0000   0.3164
  17.000   0.6461   0.19456   0.18975  -0.0550  0.0802  0.9999  -1.3154   0.0000   0.0000   0.0000   0.3245
  18.000   0.6582   0.20694   0.20215  -0.0597  0.0738  0.9999  -1.2964   0.0000   0.0000   0.0000   0.3291
  19.000   0.6941   0.22667   0.22199  -0.0612  0.0637  0.9999  -1.4633   0.0000   0.0000   0.0000   0.3255
  20.000   0.6832   0.23098   0.22631  -0.0697  0.0576  0.9999  -1.2204   0.0000   0.0000   0.0000   0.3384
  21.000   0.7153   0.25134   0.24674  -0.0715  0.0515  0.9999  -1.3554   0.0000   0.0000   0.0000   0.3350
  22.000   0.7106   0.25675   0.25219  -0.0796  0.0484  0.9999  -1.1490   0.0000   0.0000   0.0000   0.3460
  23.000   0.7248   0.26971   0.26525  -0.0845  0.0426  0.9999  -1.1795   0.0000   0.0000   0.0000   0.3491
  24.000   0.7409   0.28580   0.28140  -0.0886  0.0396  0.9999  -1.2283   0.0000   0.0000   0.0000   0.3506
  25.000   0.7488   0.29677   0.29243  -0.0951  0.0358  0.9999  -1.1205   0.0000   0.0000   0.0000   0.3566
  26.000   0.7612   0.31042   0.30620  -0.1001  0.0319  0.9999  -1.1155   0.0000   0.0000   0.0000   0.3593
  27.000   0.7800   0.33127   0.32713  -0.1033  0.0296  0.9999  -1.2014   0.0000   0.0000   0.0000   0.3584
  28.000   0.7818   0.33926   0.33518  -0.1104  0.0286  0.9999  -1.0503   0.0000   0.0000   0.0000   0.3654
  29.000   0.7908   0.35286   0.34887  -0.1160  0.0251  0.9999  -1.0430   0.0000   0.0000   0.0000   0.3689
  30.000   0.7994   0.36692   0.36306  -0.1211  0.0225  0.9999  -1.0780   0.0000   0.0000   0.0000   0.3714


