xflr5 v6.61

 Calculated polar for: SJ4_8_70

 1 1 Reynolds number fixed          Mach number fixed         

 xtrf =   1.000 (top)        1.000 (bottom)
 Mach =   0.200     Re =     0.090 e 6     Ncrit =   9.000

  alpha     CL        CD       CDp       Cm    Top Xtr Bot Xtr   Cpmin    Chinge    XCp    
 ------- -------- --------- --------- -------- ------- ------- -------- --------- ---------
 -21.000  -0.8583   0.27403   0.26828   0.0829  1.0001  0.0354  -1.7085   0.0000   0.0000   0.0000   0.3297
 -20.000  -0.8219   0.26144   0.25565   0.0738  1.0001  0.0403  -1.6651   0.0000   0.0000   0.0000   0.3244
 -19.000  -0.7992   0.25936   0.25363   0.0595  1.0001  0.0427  -1.8489   0.0000   0.0000   0.0000   0.3107
 -18.000  -0.7507   0.23442   0.22865   0.0567  1.0001  0.0467  -1.6040   0.0000   0.0000   0.0000   0.3126
 -17.000  -0.7172   0.22203   0.21625   0.0476  1.0001  0.0529  -1.6461   0.0000   0.0000   0.0000   0.3047
 -16.000  -0.6878   0.20833   0.20261   0.0388  1.0001  0.0556  -1.7129   0.0000   0.0000   0.0000   0.2957
 -15.000  -0.6522   0.19373   0.18801   0.0331  1.0001  0.0644  -1.6206   0.0000   0.0000   0.0000   0.2911
 -14.000  -0.6253   0.17919   0.17351   0.0261  1.0001  0.0699  -1.6267   0.0000   0.0000   0.0000   0.2828
 -13.000  -0.6108   0.16769   0.16208   0.0174  1.0001  0.0793  -1.6883   0.0000   0.0000   0.0000   0.2705
 -12.000  -0.5763   0.15025   0.14467   0.0145  1.0001  0.0872  -1.6146   0.0000   0.0000   0.0000   0.2680
 -11.000  -0.5641   0.13541   0.12992   0.0077  1.0001  0.0967  -1.7043   0.0000   0.0000   0.0000   0.2572
 -10.000  -0.5482   0.12054   0.11515   0.0027  1.0001  0.1116  -1.7197   0.0000   0.0000   0.0000   0.2492
  -9.000  -0.5360   0.10564   0.10037  -0.0025  1.0001  0.1279  -1.7397   0.0000   0.0000   0.0000   0.2404
  -8.000  -0.5423   0.09075   0.08570  -0.0113  1.0001  0.1478  -1.8401   0.0000   0.0000   0.0000   0.2250
  -7.000  -0.5363   0.07420   0.06931  -0.0191  1.0001  0.1689  -1.8620   0.0000   0.0000   0.0000   0.2111
  -6.000  -0.5248   0.03844   0.03104  -0.0371  1.0001  0.0676  -2.9488   0.0000   0.0000   0.0000   0.1752
  -5.000  -0.4438   0.02689   0.01810  -0.0330  1.0001  0.0736  -2.7803   0.0000   0.0000   0.0000   0.1717
  -4.000  -0.3458   0.01990   0.01030  -0.0287  1.0001  0.1084  -2.3992   0.0000   0.0000   0.0000   0.1633
  -3.000  -0.2505   0.01455   0.00679  -0.0255  1.0001  0.4257  -1.8661   0.0000   0.0000   0.0000   0.1445
  -2.000  -0.1240   0.01290   0.00634  -0.0230  1.0001  0.9999  -1.0991   0.0000   0.0000   0.0000   0.0601
  -1.000  -0.0494   0.01307   0.00576  -0.0182  1.0001  0.9999  -0.6473   0.0000   0.0000   0.0000  -0.1230
   0.000   0.0390   0.01396   0.00622  -0.0163  1.0001  0.9999  -0.3701   0.0000   0.0000   0.0000   0.6679
   1.000   0.1820   0.01558   0.00769  -0.0261  0.9782  0.9999  -0.4897   0.0000   0.0000   0.0000   0.3912
   2.000   0.4058   0.01543   0.00786  -0.0467  0.9022  0.9999  -0.7663   0.0000   0.0000   0.0000   0.3626
   3.000   0.5434   0.01407   0.00672  -0.0450  0.7837  0.9999  -1.0744   0.0000   0.0000   0.0000   0.3300
   4.000   0.6412   0.01471   0.00684  -0.0371  0.5945  0.9999  -1.4480   0.0000   0.0000   0.0000   0.3043
   5.000   0.7334   0.01719   0.00847  -0.0313  0.3907  0.9999  -1.9891   0.0000   0.0000   0.0000   0.2882
   6.000   0.8243   0.02094   0.01152  -0.0269  0.2307  0.9999  -2.6789   0.0000   0.0000   0.0000   0.2773
   7.000   0.9156   0.02631   0.01664  -0.0230  0.1319  0.9999  -3.4224   0.0000   0.0000   0.0000   0.2687
   8.000   1.0027   0.03440   0.02558  -0.0184  0.0841  0.9999  -4.0755   0.0000   0.0000   0.0000   0.2609
   9.000   1.0605   0.04712   0.03950  -0.0126  0.0662  0.9999  -4.5155   0.0000   0.0000   0.0000   0.2536
  10.000   1.0304   0.06503   0.05928  -0.0045  0.0650  0.9999  -4.3579   0.0000   0.0000   0.0000   0.2453
  11.000   0.7293   0.09862   0.09374  -0.0148  0.0871  0.9999  -2.6501   0.0000   0.0000   0.0000   0.2617
  13.000   0.6385   0.15011   0.14513  -0.0349  0.1449  0.9999  -1.6060   0.0000   0.0000   0.0000   0.2964
  14.000   0.6127   0.15853   0.15356  -0.0395  0.1281  0.9999  -1.4334   0.0000   0.0000   0.0000   0.3058
  15.000   0.6161   0.16972   0.16478  -0.0435  0.1141  0.9999  -1.3942   0.0000   0.0000   0.0000   0.3112
  16.000   0.6238   0.18099   0.17608  -0.0477  0.1003  0.9999  -1.3548   0.0000   0.0000   0.0000   0.3164
  17.000   0.6414   0.19408   0.18921  -0.0511  0.0906  0.9999  -1.3542   0.0000   0.0000   0.0000   0.3186
  18.000   0.6682   0.21004   0.20525  -0.0538  0.0786  0.9999  -1.4436   0.0000   0.0000   0.0000   0.3185
  19.000   0.6598   0.21621   0.21145  -0.0615  0.0702  0.9999  -1.2690   0.0000   0.0000   0.0000   0.3303
  20.000   0.6770   0.23010   0.22539  -0.0656  0.0654  0.9999  -1.2772   0.0000   0.0000   0.0000   0.3328
  21.000   0.6883   0.24119   0.23656  -0.0711  0.0566  0.9999  -1.2237   0.0000   0.0000   0.0000   0.3380
  22.000   0.7009   0.25448   0.24989  -0.0762  0.0530  0.9999  -1.1822   0.0000   0.0000   0.0000   0.3423
  23.000   0.7137   0.26687   0.26235  -0.0816  0.0465  0.9999  -1.1753   0.0000   0.0000   0.0000   0.3466
  24.000   0.7336   0.28425   0.27982  -0.0851  0.0433  0.9999  -1.2590   0.0000   0.0000   0.0000   0.3466
  25.000   0.7383   0.29373   0.28936  -0.0922  0.0388  0.9999  -1.1164   0.0000   0.0000   0.0000   0.3541
  26.000   0.7527   0.30790   0.30363  -0.0966  0.0346  0.9999  -1.1537   0.0000   0.0000   0.0000   0.3557
  27.000   0.7630   0.32269   0.31849  -0.1018  0.0333  0.9999  -1.1167   0.0000   0.0000   0.0000   0.3592
  28.000   0.7715   0.33536   0.33124  -0.1079  0.0302  0.9999  -1.0667   0.0000   0.0000   0.0000   0.3638
  29.000   0.7816   0.34928   0.34527  -0.1129  0.0267  0.9999  -1.1047   0.0000   0.0000   0.0000   0.3662
  30.000   0.7911   0.36544   0.36152  -0.1176  0.0254  0.9999  -1.1247   0.0000   0.0000   0.0000   0.3682


