xflr5 v6.61

 Calculated polar for: SJ4_8_00

 1 1 Reynolds number fixed          Mach number fixed         

 xtrf =   1.000 (top)        1.000 (bottom)
 Mach =   0.200     Re =     0.050 e 6     Ncrit =   9.000

  alpha     CL        CD       CDp       Cm    Top Xtr Bot Xtr   Cpmin    Chinge    XCp    
 ------- -------- --------- --------- -------- ------- ------- -------- --------- ---------
 -30.000  -1.1640   0.38093   0.37389   0.1756  1.0001  0.0326  -1.8389   0.0000   0.0000   0.0000   0.3679
 -29.000  -1.1352   0.37017   0.36303   0.1650  1.0001  0.0351  -1.8123   0.0000   0.0000   0.0000   0.3648
 -28.000  -1.1049   0.35983   0.35257   0.1540  1.0001  0.0379  -1.8055   0.0000   0.0000   0.0000   0.3613
 -27.000  -1.0734   0.35321   0.34588   0.1418  1.0001  0.0406  -1.8468   0.0000   0.0000   0.0000   0.3562
 -26.000  -1.0442   0.34975   0.34245   0.1290  1.0001  0.0416  -1.9065   0.0000   0.0000   0.0000   0.3499
 -25.000  -1.0080   0.32583   0.31837   0.1226  1.0001  0.0451  -1.7335   0.0000   0.0000   0.0000   0.3496
 -24.000  -0.9737   0.31406   0.30654   0.1127  1.0001  0.0495  -1.6731   0.0000   0.0000   0.0000   0.3455
 -23.000  -0.9412   0.30809   0.30055   0.1006  1.0001  0.0531  -1.7136   0.0000   0.0000   0.0000   0.3385
 -22.000  -0.9048   0.29099   0.28339   0.0923  1.0001  0.0554  -1.6882   0.0000   0.0000   0.0000   0.3351
 -21.000  -0.8680   0.27706   0.26942   0.0842  1.0001  0.0616  -1.6351   0.0000   0.0000   0.0000   0.3315
 -20.000  -0.8421   0.27567   0.26808   0.0712  1.0001  0.0664  -1.7545   0.0000   0.0000   0.0000   0.3207
 -19.000  -0.7967   0.25149   0.24386   0.0666  1.0001  0.0737  -1.5920   0.0000   0.0000   0.0000   0.3208
 -18.000  -0.7731   0.24740   0.23978   0.0547  1.0001  0.0797  -1.6778   0.0000   0.0000   0.0000   0.3094
 -17.000  -0.7272   0.22530   0.21765   0.0504  1.0001  0.0887  -1.5110   0.0000   0.0000   0.0000   0.3088
 -16.000  -0.6965   0.21247   0.20489   0.0423  1.0001  0.0961  -1.5406   0.0000   0.0000   0.0000   0.3013
 -15.000  -0.6795   0.20509   0.19759   0.0331  1.0001  0.1068  -1.6312   0.0000   0.0000   0.0000   0.2903
 -14.000  -0.6542   0.19130   0.18383   0.0268  1.0001  0.1207  -1.6349   0.0000   0.0000   0.0000   0.2835
 -13.000  -0.6208   0.17373   0.16633   0.0223  1.0001  0.1355  -1.5852   0.0000   0.0000   0.0000   0.2792
 -12.000  -0.5864   0.15697   0.14961   0.0192  1.0001  0.1537  -1.5059   0.0000   0.0000   0.0000   0.2764
 -11.000  -0.5751   0.14441   0.13713   0.0138  1.0001  0.1752  -1.5184   0.0000   0.0000   0.0000   0.2685
 -10.000  -0.5542   0.12946   0.12231   0.0108  1.0001  0.2023  -1.5049   0.0000   0.0000   0.0000   0.2647
  -9.000  -0.5343   0.11472   0.10772   0.0090  1.0001  0.2379  -1.5164   0.0000   0.0000   0.0000   0.2626
  -8.000  -0.5215   0.10092   0.09412   0.0074  1.0001  0.2792  -1.5377   0.0000   0.0000   0.0000   0.2605
  -7.000  -0.5178   0.08810   0.08154   0.0076  1.0001  0.3331  -1.5569   0.0000   0.0000   0.0000   0.2616
  -6.000  -0.5135   0.05578   0.04823  -0.0349  1.0001  0.1345  -2.3695   0.0000   0.0000   0.0000   0.1792
  -5.000  -0.4395   0.03783   0.02851  -0.0361  1.0001  0.1193  -2.4512   0.0000   0.0000   0.0000   0.1650
  -4.000  -0.3412   0.02685   0.01602  -0.0330  1.0001  0.1463  -2.2598   0.0000   0.0000   0.0000   0.1503
  -3.000  -0.2452   0.01843   0.00932  -0.0270  1.0001  0.4785  -1.9720   0.0000   0.0000   0.0000   0.1369
  -2.000  -0.1159   0.01599   0.00699  -0.0248  1.0001  0.9999  -1.1859   0.0000   0.0000   0.0000   0.0322
  -1.000  -0.0353   0.01606   0.00602  -0.0205  1.0001  0.9999  -0.6732   0.0000   0.0000   0.0000  -0.3364
   0.000   0.0529   0.01667   0.00606  -0.0178  1.0001  0.9999  -0.3476   0.0000   0.0000   0.0000   0.5864
   1.000   0.1404   0.01795   0.00714  -0.0164  1.0001  0.9999  -0.4395   0.0000   0.0000   0.0000   0.3644
   2.000   0.2210   0.02037   0.00965  -0.0165  1.0001  0.9999  -0.5567   0.0000   0.0000   0.0000   0.3216
   3.000   0.4568   0.02343   0.01360  -0.0446  0.9029  0.9999  -0.9166   0.0000   0.0000   0.0000   0.3447
   4.000   0.6472   0.02093   0.01196  -0.0460  0.7155  0.9999  -1.4664   0.0000   0.0000   0.0000   0.3178
   5.000   0.7385   0.02287   0.01320  -0.0335  0.4740  0.9999  -2.0742   0.0000   0.0000   0.0000   0.2913
   6.000   0.8246   0.02823   0.01772  -0.0257  0.2683  0.9999  -2.7494   0.0000   0.0000   0.0000   0.2762
   7.000   0.9131   0.03771   0.02778  -0.0203  0.1652  0.9999  -3.3350   0.0000   0.0000   0.0000   0.2665
   8.000   0.9689   0.05172   0.04335  -0.0146  0.1237  0.9999  -3.5981   0.0000   0.0000   0.0000   0.2586
   9.000   0.9408   0.07400   0.06720  -0.0127  0.1251  0.9999  -3.3414   0.0000   0.0000   0.0000   0.2566
  10.000   0.6856   0.10307   0.09645  -0.0245  0.1789  0.9999  -2.0665   0.0000   0.0000   0.0000   0.2794
  11.000   0.7839   0.14216   0.13515  -0.0612  0.2712  0.9999  -1.8494   0.0000   0.0000   0.0000   0.3205
  12.000   0.8009   0.15940   0.15240  -0.0642  0.2412  0.9999  -1.8459   0.0000   0.0000   0.0000   0.3217
  13.000   0.8190   0.17601   0.16901  -0.0680  0.2100  0.9999  -1.8638   0.0000   0.0000   0.0000   0.3236
  14.000   0.8448   0.19253   0.18555  -0.0725  0.1845  0.9999  -1.8824   0.0000   0.0000   0.0000   0.3253
  15.000   0.8571   0.20497   0.19790  -0.0805  0.1616  0.9999  -1.8116   0.0000   0.0000   0.0000   0.3322
  16.000   0.8980   0.22406   0.21705  -0.0849  0.1432  0.9999  -1.8721   0.0000   0.0000   0.0000   0.3316
  17.000   0.9255   0.23907   0.23206  -0.0928  0.1286  0.9999  -1.8972   0.0000   0.0000   0.0000   0.3360
  18.000   0.9524   0.25157   0.24453  -0.1020  0.1146  0.9999  -1.8924   0.0000   0.0000   0.0000   0.3414
  19.000   0.9923   0.27089   0.26389  -0.1084  0.1021  0.9999  -1.9648   0.0000   0.0000   0.0000   0.3422
  20.000   1.0166   0.27773   0.27072  -0.1206  0.0918  0.9999  -1.8805   0.0000   0.0000   0.0000   0.3497
  21.000   1.0490   0.29063   0.28366  -0.1308  0.0831  0.9999  -1.8401   0.0000   0.0000   0.0000   0.3541
  22.000   1.0872   0.30932   0.30240  -0.1379  0.0757  0.9999  -1.9698   0.0000   0.0000   0.0000   0.3545
  23.000   1.1177   0.31746   0.31057  -0.1503  0.0683  0.9999  -1.9447   0.0000   0.0000   0.0000   0.3602
  24.000   1.1549   0.33825   0.33147  -0.1573  0.0634  0.9999  -2.0646   0.0000   0.0000   0.0000   0.3600
  25.000   1.1843   0.34321   0.33646  -0.1711  0.0578  0.9999  -1.9810   0.0000   0.0000   0.0000   0.3660


