xflr5 v6.61

 Calculated polar for: SJ4_7_00

 1 1 Reynolds number fixed          Mach number fixed         

 xtrf =   1.000 (top)        1.000 (bottom)
 Mach =   0.200     Re =     0.090 e 6     Ncrit =   9.000

  alpha     CL        CD       CDp       Cm    Top Xtr Bot Xtr   Cpmin    Chinge    XCp    
 ------- -------- --------- --------- -------- ------- ------- -------- --------- ---------
 -26.000  -0.6624   0.29305   0.28844   0.0690  1.0001  0.0218  -1.0415   0.0000   0.0000   0.0000   0.3405
 -25.000  -0.6469   0.28010   0.27540   0.0639  1.0001  0.0237  -1.0029   0.0000   0.0000   0.0000   0.3365
 -24.000  -0.6311   0.26806   0.26326   0.0585  1.0001  0.0259  -0.9907   0.0000   0.0000   0.0000   0.3316
 -23.000  -0.6150   0.25680   0.25193   0.0528  1.0001  0.0287  -0.9980   0.0000   0.0000   0.0000   0.3259
 -22.000  -0.6076   0.25240   0.24749   0.0456  1.0001  0.0300  -1.1119   0.0000   0.0000   0.0000   0.3162
 -21.000  -0.5819   0.23332   0.22838   0.0421  1.0001  0.0319  -1.0522   0.0000   0.0000   0.0000   0.3143
 -20.000  -0.5629   0.22168   0.21665   0.0374  1.0001  0.0354  -1.0474   0.0000   0.0000   0.0000   0.3093
 -19.000  -0.5457   0.21134   0.20627   0.0321  1.0001  0.0395  -1.0989   0.0000   0.0000   0.0000   0.3024
 -18.000  -0.5434   0.20837   0.20328   0.0250  1.0001  0.0411  -1.2734   0.0000   0.0000   0.0000   0.2903
 -17.000  -0.5105   0.18948   0.18437   0.0227  1.0001  0.0450  -1.1193   0.0000   0.0000   0.0000   0.2893
 -16.000  -0.4962   0.18054   0.17537   0.0178  1.0001  0.0522  -1.1322   0.0000   0.0000   0.0000   0.2811
 -15.000  -0.4851   0.17069   0.16554   0.0131  1.0001  0.0551  -1.1807   0.0000   0.0000   0.0000   0.2726
 -14.000  -0.4664   0.15980   0.15463   0.0102  1.0001  0.0630  -1.1792   0.0000   0.0000   0.0000   0.2680
 -13.000  -0.4935   0.15900   0.15386   0.0037  1.0001  0.0665  -1.4632   0.0000   0.0000   0.0000   0.2539
 -12.000  -0.4545   0.14060   0.13543   0.0037  1.0001  0.0767  -1.3193   0.0000   0.0000   0.0000   0.2548
 -11.000  -0.4485   0.12801   0.12289   0.0001  1.0001  0.0836  -1.3751   0.0000   0.0000   0.0000   0.2472
 -10.000  -0.4697   0.11720   0.11221  -0.0077  1.0001  0.0932  -1.5824   0.0000   0.0000   0.0000   0.2310
  -9.000  -0.4705   0.10197   0.09712  -0.0122  1.0001  0.1069  -1.6218   0.0000   0.0000   0.0000   0.2218
  -6.000  -0.5042   0.06411   0.05920  -0.0220  1.0001  0.1693  -1.7548   0.0000   0.0000   0.0000   0.2045
  -5.000  -0.4217   0.03745   0.03046  -0.0376  1.0001  0.0778  -2.4257   0.0000   0.0000   0.0000   0.1586
  -4.000  -0.3223   0.02446   0.01525  -0.0346  1.0001  0.0674  -2.4825   0.0000   0.0000   0.0000   0.1399
  -3.000  -0.2191   0.01732   0.00773  -0.0308  1.0001  0.0979  -2.0661   0.0000   0.0000   0.0000   0.1066
  -2.000  -0.1097   0.01160   0.00505  -0.0265  1.0001  0.9999  -1.4874   0.0000   0.0000   0.0000   0.0047
  -1.000  -0.0173   0.01173   0.00422  -0.0236  1.0001  0.9999  -0.7772   0.0000   0.0000   0.0000  -1.1250
   0.000   0.0791   0.01227   0.00428  -0.0218  1.0001  0.9999  -0.3182   0.0000   0.0000   0.0000   0.5253
   1.000   0.1738   0.01335   0.00524  -0.0210  1.0001  0.9999  -0.4292   0.0000   0.0000   0.0000   0.3693
   2.000   0.3473   0.01480   0.00697  -0.0362  0.9602  0.9999  -0.6558   0.0000   0.0000   0.0000   0.3522
   3.000   0.5388   0.01362   0.00650  -0.0465  0.8416  0.9999  -1.1246   0.0000   0.0000   0.0000   0.3340
   4.000   0.6384   0.01390   0.00642  -0.0371  0.6026  0.9999  -1.7510   0.0000   0.0000   0.0000   0.3051
   5.000   0.7243   0.01730   0.00848  -0.0302  0.2906  0.9999  -2.5820   0.0000   0.0000   0.0000   0.2879
   6.000   0.8130   0.02359   0.01394  -0.0256  0.1088  0.9999  -3.3674   0.0000   0.0000   0.0000   0.2768
   7.000   0.9089   0.03341   0.02451  -0.0213  0.0655  0.9999  -4.0429   0.0000   0.0000   0.0000   0.2680
   8.000   0.9595   0.05036   0.04387  -0.0149  0.0596  0.9999  -4.0709   0.0000   0.0000   0.0000   0.2595
   9.000   0.9547   0.07160   0.06623  -0.0119  0.0633  0.9999  -3.8792   0.0000   0.0000   0.0000   0.2559
  11.000   0.6563   0.12726   0.12245  -0.0372  0.1480  0.9999  -1.7497   0.0000   0.0000   0.0000   0.3008
  12.000   0.6767   0.14376   0.13897  -0.0369  0.1287  0.9999  -1.8097   0.0000   0.0000   0.0000   0.2979
  13.000   0.6661   0.15667   0.15187  -0.0404  0.1153  0.9999  -1.6897   0.0000   0.0000   0.0000   0.3035
  14.000   0.6541   0.16668   0.16187  -0.0445  0.1017  0.9999  -1.5521   0.0000   0.0000   0.0000   0.3102
  15.000   0.6643   0.17969   0.17493  -0.0478  0.0889  0.9999  -1.5569   0.0000   0.0000   0.0000   0.3134
  16.000   0.6533   0.18664   0.18188  -0.0542  0.0787  0.9999  -1.4098   0.0000   0.0000   0.0000   0.3238
  17.000   0.6601   0.19825   0.19350  -0.0595  0.0719  0.9999  -1.3297   0.0000   0.0000   0.0000   0.3302
  18.000   0.6814   0.21298   0.20827  -0.0625  0.0631  0.9999  -1.3845   0.0000   0.0000   0.0000   0.3307
  19.000   0.6861   0.22227   0.21762  -0.0689  0.0555  0.9999  -1.2514   0.0000   0.0000   0.0000   0.3385
  20.000   0.7079   0.23871   0.23411  -0.0720  0.0512  0.9999  -1.2812   0.0000   0.0000   0.0000   0.3386
  21.000   0.7125   0.24767   0.24311  -0.0789  0.0461  0.9999  -1.1681   0.0000   0.0000   0.0000   0.3466
  22.000   0.7432   0.26979   0.26534  -0.0807  0.0401  0.9999  -1.3888   0.0000   0.0000   0.0000   0.3430
  23.000   0.7396   0.27429   0.26987  -0.0887  0.0382  0.9999  -1.1801   0.0000   0.0000   0.0000   0.3532
  24.000   0.7521   0.28741   0.28306  -0.0941  0.0337  0.9999  -1.1467   0.0000   0.0000   0.0000   0.3568
  25.000   0.7682   0.30325   0.29900  -0.0978  0.0302  0.9999  -1.2196   0.0000   0.0000   0.0000   0.3574
  26.000   0.7777   0.31750   0.31332  -0.1033  0.0293  0.9999  -1.1277   0.0000   0.0000   0.0000   0.3613
  27.000   0.7862   0.32937   0.32527  -0.1095  0.0268  0.9999  -1.0124   0.0000   0.0000   0.0000   0.3660
  28.000   0.7962   0.34336   0.33935  -0.1147  0.0235  0.9999  -1.0504   0.0000   0.0000   0.0000   0.3688
  29.000   0.8082   0.36085   0.35695  -0.1185  0.0212  0.9999  -1.1821   0.0000   0.0000   0.0000   0.3693
  30.000   0.8141   0.37463   0.37081  -0.1242  0.0207  0.9999  -1.1340   0.0000   0.0000   0.0000   0.3731


