xflr5 v6.61

 Calculated polar for: SJ4_12_86

 1 1 Reynolds number fixed          Mach number fixed         

 xtrf =   1.000 (top)        1.000 (bottom)
 Mach =   0.200     Re =     0.050 e 6     Ncrit =   9.000

  alpha     CL        CD       CDp       Cm    Top Xtr Bot Xtr   Cpmin    Chinge    XCp    
 ------- -------- --------- --------- -------- ------- ------- -------- --------- ---------
 -29.000  -1.0451   0.35380   0.34604   0.1383  1.0001  0.0575  -1.8234   0.0000   0.0000   0.0000   0.3405
 -28.000  -1.0161   0.34928   0.34145   0.1252  1.0001  0.0618  -1.8690   0.0000   0.0000   0.0000   0.3342
 -27.000  -0.9808   0.33274   0.32484   0.1168  1.0001  0.0652  -1.7665   0.0000   0.0000   0.0000   0.3323
 -26.000  -0.9482   0.32388   0.31591   0.1055  1.0001  0.0707  -1.7632   0.0000   0.0000   0.0000   0.3269
 -25.000  -0.9128   0.31059   0.30259   0.0962  1.0001  0.0748  -1.7205   0.0000   0.0000   0.0000   0.3231
 -24.000  -0.8801   0.30229   0.29424   0.0851  1.0001  0.0817  -1.7213   0.0000   0.0000   0.0000   0.3166
 -23.000  -0.8420   0.28728   0.27921   0.0769  1.0001  0.0862  -1.6484   0.0000   0.0000   0.0000   0.3129
 -22.000  -0.8147   0.28299   0.27491   0.0648  1.0001  0.0941  -1.7137   0.0000   0.0000   0.0000   0.3033
 -21.000  -0.7693   0.26330   0.25518   0.0589  1.0001  0.1023  -1.5975   0.0000   0.0000   0.0000   0.3016
 -20.000  -0.7370   0.25225   0.24415   0.0491  1.0001  0.1092  -1.5992   0.0000   0.0000   0.0000   0.2934
 -19.000  -0.7102   0.24518   0.23711   0.0393  1.0001  0.1207  -1.6346   0.0000   0.0000   0.0000   0.2839
 -18.000  -0.6639   0.22663   0.21853   0.0339  1.0001  0.1327  -1.5454   0.0000   0.0000   0.0000   0.2806
 -17.000  -0.6276   0.21284   0.20475   0.0271  1.0001  0.1442  -1.5054   0.0000   0.0000   0.0000   0.2740
 -16.000  -0.5947   0.19988   0.19183   0.0205  1.0001  0.1594  -1.4938   0.0000   0.0000   0.0000   0.2664
 -15.000  -0.5642   0.18680   0.17879   0.0143  1.0001  0.1759  -1.4921   0.0000   0.0000   0.0000   0.2585
 -14.000  -0.5517   0.17684   0.16892   0.0077  1.0001  0.1962  -1.5357   0.0000   0.0000   0.0000   0.2485
 -13.000  -0.5129   0.16005   0.15216   0.0044  1.0001  0.2176  -1.4874   0.0000   0.0000   0.0000   0.2438
 -12.000  -0.5097   0.14923   0.14144  -0.0002  1.0001  0.2451  -1.5477   0.0000   0.0000   0.0000   0.2364
 -11.000  -0.4886   0.13474   0.12701  -0.0023  1.0001  0.2780  -1.5340   0.0000   0.0000   0.0000   0.2329
 -10.000  -0.4596   0.11910   0.11142  -0.0031  1.0001  0.3151  -1.5018   0.0000   0.0000   0.0000   0.2315
  -9.000  -0.4481   0.10606   0.09845  -0.0031  1.0001  0.3612  -1.4978   0.0000   0.0000   0.0000   0.2324
  -8.000  -0.6867   0.05794   0.05002  -0.0365  1.0001  0.1652  -2.8547   0.0000   0.0000   0.0000   0.1886
  -7.000  -0.6645   0.04552   0.03698  -0.0290  1.0001  0.1879  -2.7300   0.0000   0.0000   0.0000   0.1988
  -6.000  -0.6147   0.03553   0.02578  -0.0223  1.0001  0.2299  -2.4968   0.0000   0.0000   0.0000   0.2067
  -5.000  -0.5361   0.02978   0.01982  -0.0166  1.0001  0.2996  -2.0954   0.0000   0.0000   0.0000   0.2127
  -4.000  -0.4509   0.02585   0.01604  -0.0112  1.0001  0.4079  -1.6789   0.0000   0.0000   0.0000   0.2193
  -3.000  -0.3674   0.02334   0.01422  -0.0042  1.0001  0.5756  -1.3145   0.0000   0.0000   0.0000   0.2331
  -2.000  -0.3047   0.02263   0.01448   0.0111  1.0001  0.8197  -1.0558   0.0000   0.0000   0.0000   0.2817
  -1.000  -0.1132   0.02317   0.01423  -0.0084  1.0001  0.9999  -0.7190   0.0000   0.0000   0.0000   0.1695
   0.000  -0.0888   0.02423   0.01474  -0.0015  1.0001  0.9999  -0.6135   0.0000   0.0000   0.0000   0.2298
   1.000   0.1108   0.02798   0.01810  -0.0244  0.9368  0.9999  -0.5677   0.0000   0.0000   0.0000   0.4654
   2.000   0.3395   0.02905   0.01922  -0.0454  0.8431  0.9999  -0.8001   0.0000   0.0000   0.0000   0.3796
   3.000   0.5251   0.02721   0.01757  -0.0515  0.7471  0.9999  -1.0619   0.0000   0.0000   0.0000   0.3434
   4.000   0.6515   0.02638   0.01662  -0.0463  0.6425  0.9999  -1.3120   0.0000   0.0000   0.0000   0.3157
   5.000   0.7489   0.02801   0.01802  -0.0392  0.5365  0.9999  -1.5624   0.0000   0.0000   0.0000   0.2961
   6.000   0.8439   0.03092   0.02069  -0.0332  0.4437  0.9999  -1.8475   0.0000   0.0000   0.0000   0.2821
   7.000   0.9258   0.03569   0.02563  -0.0272  0.3664  0.9999  -2.1433   0.0000   0.0000   0.0000   0.2711
   8.000   0.9998   0.04198   0.03226  -0.0213  0.3064  0.9999  -2.4743   0.0000   0.0000   0.0000   0.2620
   9.000   1.0588   0.05025   0.04100  -0.0150  0.2609  0.9999  -2.8166   0.0000   0.0000   0.0000   0.2537
  10.000   0.8111   0.09070   0.08239  -0.0188  0.2666  0.9999  -2.0220   0.0000   0.0000   0.0000   0.2617
  11.000   0.7795   0.11600   0.10773  -0.0273  0.2613  0.9999  -1.8852   0.0000   0.0000   0.0000   0.2726
  13.000   0.5204   0.14884   0.14114  -0.0276  0.3279  0.9999  -1.0760   0.0000   0.0000   0.0000   0.2917
  14.000   0.5270   0.15757   0.15002  -0.0286  0.2956  0.9999  -1.0894   0.0000   0.0000   0.0000   0.2923
  15.000   0.5292   0.16557   0.15814  -0.0308  0.2668  0.9999  -1.0789   0.0000   0.0000   0.0000   0.2957
  16.000   0.5444   0.17610   0.16881  -0.0336  0.2423  0.9999  -1.0987   0.0000   0.0000   0.0000   0.2984
  17.000   0.5628   0.18662   0.17948  -0.0365  0.2163  0.9999  -1.1272   0.0000   0.0000   0.0000   0.3007
  18.000   0.5785   0.19820   0.19116  -0.0401  0.1973  0.9999  -1.1319   0.0000   0.0000   0.0000   0.3043
  19.000   0.5849   0.20679   0.19987  -0.0446  0.1780  0.9999  -1.0987   0.0000   0.0000   0.0000   0.3104
  20.000   0.5995   0.21766   0.21084  -0.0489  0.1606  0.9999  -1.0953   0.0000   0.0000   0.0000   0.3147
  21.000   0.6145   0.22901   0.22231  -0.0534  0.1457  0.9999  -1.0873   0.0000   0.0000   0.0000   0.3189
  22.000   0.6288   0.24071   0.23411  -0.0582  0.1336  0.9999  -1.0801   0.0000   0.0000   0.0000   0.3232
  23.000   0.6448   0.25325   0.24677  -0.0628  0.1232  0.9999  -1.0792   0.0000   0.0000   0.0000   0.3268
  24.000   0.6654   0.26805   0.26169  -0.0669  0.1119  0.9999  -1.1131   0.0000   0.0000   0.0000   0.3284
  25.000   0.6730   0.27756   0.27132  -0.0726  0.1017  0.9999  -1.0737   0.0000   0.0000   0.0000   0.3344
  26.000   0.6831   0.28969   0.28357  -0.0783  0.0944  0.9999  -1.0342   0.0000   0.0000   0.0000   0.3395
  27.000   0.7002   0.30485   0.29883  -0.0826  0.0874  0.9999  -1.0768   0.0000   0.0000   0.0000   0.3410
  28.000   0.7075   0.31546   0.30958  -0.0886  0.0794  0.9999  -1.0309   0.0000   0.0000   0.0000   0.3464
  29.000   0.7177   0.32887   0.32311  -0.0939  0.0751  0.9999  -1.0167   0.0000   0.0000   0.0000   0.3502
  30.000   0.7293   0.34240   0.33679  -0.0989  0.0677  0.9999  -1.0396   0.0000   0.0000   0.0000   0.3527


