xflr5 v6.61

 Calculated polar for: SJ4_7_00

 1 1 Reynolds number fixed          Mach number fixed         

 xtrf =   1.000 (top)        1.000 (bottom)
 Mach =   0.200     Re =     0.050 e 6     Ncrit =   9.000

  alpha     CL        CD       CDp       Cm    Top Xtr Bot Xtr   Cpmin    Chinge    XCp    
 ------- -------- --------- --------- -------- ------- ------- -------- --------- ---------
 -30.000  -1.1811   0.39489   0.38797   0.1785  1.0001  0.0299  -1.9365   0.0000   0.0000   0.0000   0.3704
 -29.000  -1.1534   0.38459   0.37765   0.1671  1.0001  0.0304  -1.9272   0.0000   0.0000   0.0000   0.3666
 -28.000  -1.1236   0.36261   0.35550   0.1593  1.0001  0.0326  -1.8057   0.0000   0.0000   0.0000   0.3656
 -27.000  -1.0928   0.35119   0.34399   0.1490  1.0001  0.0353  -1.7751   0.0000   0.0000   0.0000   0.3623
 -26.000  -1.0605   0.34033   0.33306   0.1384  1.0001  0.0384  -1.7657   0.0000   0.0000   0.0000   0.3584
 -25.000  -1.0286   0.33661   0.32926   0.1256  1.0001  0.0409  -1.8301   0.0000   0.0000   0.0000   0.3520
 -24.000  -0.9943   0.31891   0.31154   0.1168  1.0001  0.0426  -1.7619   0.0000   0.0000   0.0000   0.3491
 -23.000  -0.9592   0.30438   0.29694   0.1084  1.0001  0.0467  -1.6522   0.0000   0.0000   0.0000   0.3462
 -22.000  -0.9242   0.29314   0.28561   0.0984  1.0001  0.0515  -1.6061   0.0000   0.0000   0.0000   0.3412
 -21.000  -0.8974   0.29388   0.28639   0.0850  1.0001  0.0536  -1.7581   0.0000   0.0000   0.0000   0.3312
 -20.000  -0.8530   0.26683   0.25928   0.0806  1.0001  0.0589  -1.6104   0.0000   0.0000   0.0000   0.3319
 -19.000  -0.8195   0.25697   0.24942   0.0705  1.0001  0.0655  -1.6483   0.0000   0.0000   0.0000   0.3248
 -18.000  -0.7825   0.24093   0.23336   0.0634  1.0001  0.0712  -1.5939   0.0000   0.0000   0.0000   0.3208
 -17.000  -0.7544   0.23270   0.22517   0.0534  1.0001  0.0793  -1.6344   0.0000   0.0000   0.0000   0.3117
 -16.000  -0.7145   0.21419   0.20667   0.0482  1.0001  0.0872  -1.5213   0.0000   0.0000   0.0000   0.3092
 -15.000  -0.6876   0.20217   0.19469   0.0398  1.0001  0.0952  -1.5235   0.0000   0.0000   0.0000   0.3006
 -14.000  -0.6688   0.19251   0.18510   0.0319  1.0001  0.1067  -1.5865   0.0000   0.0000   0.0000   0.2913
 -13.000  -0.6406   0.17697   0.16963   0.0266  1.0001  0.1202  -1.5924   0.0000   0.0000   0.0000   0.2858
 -12.000  -0.6085   0.15966   0.15238   0.0230  1.0001  0.1377  -1.5541   0.0000   0.0000   0.0000   0.2827
 -11.000  -0.5875   0.14558   0.13836   0.0187  1.0001  0.1593  -1.5466   0.0000   0.0000   0.0000   0.2774
 -10.000  -0.5694   0.13092   0.12383   0.0149  1.0001  0.1811  -1.5383   0.0000   0.0000   0.0000   0.2722
  -9.000  -0.5526   0.11667   0.10973   0.0118  1.0001  0.2111  -1.5112   0.0000   0.0000   0.0000   0.2680
  -8.000  -0.5419   0.10299   0.09627   0.0093  1.0001  0.2503  -1.4842   0.0000   0.0000   0.0000   0.2643
  -7.000  -0.5300   0.09013   0.08362   0.0103  1.0001  0.3156  -1.4927   0.0000   0.0000   0.0000   0.2672
  -6.000  -0.5043   0.07641   0.07013   0.0146  1.0001  0.3989  -1.4710   0.0000   0.0000   0.0000   0.2770
  -5.000  -0.4309   0.04342   0.03486  -0.0369  1.0001  0.1203  -2.3131   0.0000   0.0000   0.0000   0.1622
  -4.000  -0.3312   0.02972   0.01930  -0.0360  1.0001  0.1183  -2.2669   0.0000   0.0000   0.0000   0.1391
  -3.000  -0.2241   0.02123   0.01026  -0.0318  1.0001  0.1993  -1.9932   0.0000   0.0000   0.0000   0.1055
  -2.000  -0.1092   0.01523   0.00625  -0.0266  1.0001  0.9999  -1.4287   0.0000   0.0000   0.0000   0.0034
  -1.000  -0.0202   0.01526   0.00509  -0.0231  1.0001  0.9999  -0.7673   0.0000   0.0000   0.0000  -0.9016
   0.000   0.0725   0.01573   0.00494  -0.0207  1.0001  0.9999  -0.3152   0.0000   0.0000   0.0000   0.5345
   1.000   0.1647   0.01671   0.00573  -0.0191  1.0001  0.9999  -0.4225   0.0000   0.0000   0.0000   0.3646
   2.000   0.2517   0.01856   0.00775  -0.0188  1.0001  0.9999  -0.5570   0.0000   0.0000   0.0000   0.3223
   3.000   0.4076   0.02218   0.01213  -0.0349  0.9576  0.9999  -0.8551   0.0000   0.0000   0.0000   0.3329
   4.000   0.6449   0.01995   0.01135  -0.0456  0.7339  0.9999  -1.6715   0.0000   0.0000   0.0000   0.3178
   5.000   0.7276   0.02256   0.01275  -0.0303  0.4084  0.9999  -2.4365   0.0000   0.0000   0.0000   0.2881
   6.000   0.8156   0.03051   0.01969  -0.0233  0.1832  0.9999  -3.1246   0.0000   0.0000   0.0000   0.2741
   7.000   0.9015   0.04303   0.03365  -0.0183  0.1192  0.9999  -3.5435   0.0000   0.0000   0.0000   0.2651
   8.000   0.9299   0.06239   0.05515  -0.0146  0.1096  0.9999  -3.4899   0.0000   0.0000   0.0000   0.2602
   9.000   0.8742   0.08807   0.08161  -0.0222  0.1247  0.9999  -2.9807   0.0000   0.0000   0.0000   0.2694
  10.000   0.7902   0.12902   0.12226  -0.0622  0.2858  0.9999  -1.9188   0.0000   0.0000   0.0000   0.3226
  11.000   0.7974   0.14563   0.13881  -0.0646  0.2469  0.9999  -1.9014   0.0000   0.0000   0.0000   0.3241
  12.000   0.8100   0.16206   0.15519  -0.0684  0.2176  0.9999  -1.8702   0.0000   0.0000   0.0000   0.3267
  13.000   0.8307   0.17816   0.17126  -0.0723  0.1870  0.9999  -1.8541   0.0000   0.0000   0.0000   0.3283
  14.000   0.8501   0.19368   0.18676  -0.0783  0.1662  0.9999  -1.7968   0.0000   0.0000   0.0000   0.3324
  15.000   0.8779   0.20909   0.20216  -0.0843  0.1454  0.9999  -1.8453   0.0000   0.0000   0.0000   0.3352
  16.000   0.9103   0.22617   0.21921  -0.0905  0.1282  0.9999  -1.8960   0.0000   0.0000   0.0000   0.3374
  17.000   0.9398   0.24094   0.23400  -0.0984  0.1147  0.9999  -1.8978   0.0000   0.0000   0.0000   0.3415
  18.000   0.9762   0.25866   0.25175  -0.1053  0.1020  0.9999  -1.9322   0.0000   0.0000   0.0000   0.3433
  19.000   1.0145   0.27793   0.27104  -0.1122  0.0892  0.9999  -1.9722   0.0000   0.0000   0.0000   0.3447
  20.000   1.0344   0.28050   0.27356  -0.1264  0.0806  0.9999  -1.8392   0.0000   0.0000   0.0000   0.3545
  21.000   1.0696   0.29603   0.28915  -0.1351  0.0748  0.9999  -1.9123   0.0000   0.0000   0.0000   0.3569
  22.000   1.1035   0.30841   0.30158  -0.1451  0.0663  0.9999  -1.9532   0.0000   0.0000   0.0000   0.3603
  23.000   1.1376   0.32332   0.31651  -0.1547  0.0625  0.9999  -1.9834   0.0000   0.0000   0.0000   0.3630
  24.000   1.1706   0.33417   0.32743  -0.1658  0.0552  0.9999  -1.9766   0.0000   0.0000   0.0000   0.3667
  25.000   1.2050   0.35350   0.34686  -0.1737  0.0511  0.9999  -2.0527   0.0000   0.0000   0.0000   0.3672
  26.000   1.2356   0.35935   0.35275  -0.1872  0.0472  0.9999  -1.9509   0.0000   0.0000   0.0000   0.3722
  27.000   1.2670   0.37196   0.36547  -0.1974  0.0424  0.9999  -1.9714   0.0000   0.0000   0.0000   0.3742
  28.000   1.2984   0.39626   0.38990  -0.2048  0.0399  0.9999  -2.1402   0.0000   0.0000   0.0000   0.3738
  29.000   1.3260   0.39574   0.38943  -0.2197  0.0383  0.9999  -2.0774   0.0000   0.0000   0.0000   0.3790
  30.000   1.3541   0.40598   0.39978  -0.2314  0.0345  0.9999  -2.1109   0.0000   0.0000   0.0000   0.3814


