xflr5 v6.61

 Calculated polar for: SJ4_7_00

 1 1 Reynolds number fixed          Mach number fixed         

 xtrf =   1.000 (top)        1.000 (bottom)
 Mach =   0.200     Re =     0.080 e 6     Ncrit =   9.000

  alpha     CL        CD       CDp       Cm    Top Xtr Bot Xtr   Cpmin    Chinge    XCp    
 ------- -------- --------- --------- -------- ------- ------- -------- --------- ---------
 -26.000  -1.0616   0.34171   0.33597   0.1392  1.0001  0.0217  -1.8795   0.0000   0.0000   0.0000   0.3589
 -25.000  -1.0293   0.32832   0.32248   0.1300  1.0001  0.0235  -1.7834   0.0000   0.0000   0.0000   0.3560
 -24.000  -0.9953   0.31629   0.31040   0.1202  1.0001  0.0256  -1.7321   0.0000   0.0000   0.0000   0.3521
 -23.000  -0.9601   0.30440   0.29847   0.1100  1.0001  0.0281  -1.6992   0.0000   0.0000   0.0000   0.3476
 -22.000  -0.9277   0.30100   0.29503   0.0968  1.0001  0.0299  -1.7813   0.0000   0.0000   0.0000   0.3391
 -21.000  -0.8898   0.27974   0.27377   0.0901  1.0001  0.0315  -1.6789   0.0000   0.0000   0.0000   0.3372
 -20.000  -0.8535   0.26572   0.25971   0.0823  1.0001  0.0348  -1.6193   0.0000   0.0000   0.0000   0.3337
 -19.000  -0.8175   0.25305   0.24704   0.0731  1.0001  0.0390  -1.6410   0.0000   0.0000   0.0000   0.3280
 -18.000  -0.7910   0.24866   0.24266   0.0604  1.0001  0.0411  -1.8138   0.0000   0.0000   0.0000   0.3162
 -17.000  -0.7476   0.22565   0.21964   0.0564  1.0001  0.0445  -1.6372   0.0000   0.0000   0.0000   0.3162
 -16.000  -0.7138   0.21236   0.20635   0.0488  1.0001  0.0509  -1.5907   0.0000   0.0000   0.0000   0.3100
 -15.000  -0.6875   0.20006   0.19410   0.0394  1.0001  0.0548  -1.6440   0.0000   0.0000   0.0000   0.3000
 -14.000  -0.6526   0.18433   0.17837   0.0347  1.0001  0.0631  -1.5270   0.0000   0.0000   0.0000   0.2965
 -13.000  -0.6350   0.17162   0.16577   0.0260  1.0001  0.0678  -1.6705   0.0000   0.0000   0.0000   0.2851
 -12.000  -0.6078   0.15668   0.15086   0.0212  1.0001  0.0783  -1.6547   0.0000   0.0000   0.0000   0.2796
 -11.000  -0.5838   0.14085   0.13507   0.0168  1.0001  0.0864  -1.6447   0.0000   0.0000   0.0000   0.2742
 -10.000  -0.5711   0.12627   0.12062   0.0103  1.0001  0.0967  -1.7005   0.0000   0.0000   0.0000   0.2641
  -9.000  -0.5542   0.11172   0.10619   0.0058  1.0001  0.1141  -1.6721   0.0000   0.0000   0.0000   0.2569
  -8.000  -0.5594   0.09836   0.09307  -0.0046  1.0001  0.1338  -1.7812   0.0000   0.0000   0.0000   0.2390
  -7.000  -0.5366   0.08236   0.07723  -0.0090  1.0001  0.1580  -1.6910   0.0000   0.0000   0.0000   0.2311
  -6.000  -0.5073   0.06656   0.06144  -0.0174  1.0001  0.1984  -1.7013   0.0000   0.0000   0.0000   0.2139
  -5.000  -0.4245   0.03853   0.03147  -0.0374  1.0001  0.0853  -2.3620   0.0000   0.0000   0.0000   0.1597
  -4.000  -0.3243   0.02531   0.01605  -0.0351  1.0001  0.0752  -2.4139   0.0000   0.0000   0.0000   0.1393
  -3.000  -0.2199   0.01801   0.00814  -0.0310  1.0001  0.1109  -2.0512   0.0000   0.0000   0.0000   0.1064
  -2.000  -0.1096   0.01224   0.00526  -0.0266  1.0001  0.9999  -1.4766   0.0000   0.0000   0.0000   0.0044
  -1.000  -0.0179   0.01235   0.00438  -0.0234  1.0001  0.9999  -0.7760   0.0000   0.0000   0.0000  -1.0659
   0.000   0.0776   0.01288   0.00440  -0.0215  1.0001  0.9999  -0.3175   0.0000   0.0000   0.0000   0.5269
   1.000   0.1719   0.01394   0.00531  -0.0206  1.0001  0.9999  -0.4279   0.0000   0.0000   0.0000   0.3681
   2.000   0.3075   0.01583   0.00744  -0.0295  0.9788  0.9999  -0.6134   0.0000   0.0000   0.0000   0.3440
   3.000   0.5340   0.01498   0.00748  -0.0477  0.8603  0.9999  -1.1070   0.0000   0.0000   0.0000   0.3369
   4.000   0.6397   0.01472   0.00708  -0.0380  0.6292  0.9999  -1.7409   0.0000   0.0000   0.0000   0.3064
   5.000   0.7239   0.01815   0.00912  -0.0299  0.3116  0.9999  -2.5545   0.0000   0.0000   0.0000   0.2876
   6.000   0.8128   0.02479   0.01491  -0.0250  0.1210  0.9999  -3.3174   0.0000   0.0000   0.0000   0.2761
   7.000   0.9069   0.03542   0.02647  -0.0206  0.0740  0.9999  -3.9274   0.0000   0.0000   0.0000   0.2673
   8.000   0.9644   0.05189   0.04463  -0.0154  0.0638  0.9999  -4.1449   0.0000   0.0000   0.0000   0.2599
   9.000   0.9273   0.07512   0.06982  -0.0134  0.0744  0.9999  -3.5788   0.0000   0.0000   0.0000   0.2580
  10.000   0.7206   0.09921   0.09426  -0.0218  0.1041  0.9999  -2.4350   0.0000   0.0000   0.0000   0.2743
  11.000   0.6617   0.12936   0.12427  -0.0372  0.1684  0.9999  -1.7469   0.0000   0.0000   0.0000   0.3003
  12.000   0.6821   0.14588   0.14082  -0.0369  0.1426  0.9999  -1.8071   0.0000   0.0000   0.0000   0.2975
  13.000   0.6637   0.15784   0.15275  -0.0412  0.1287  0.9999  -1.6557   0.0000   0.0000   0.0000   0.3050
  14.000   0.6550   0.16823   0.16313  -0.0447  0.1151  0.9999  -1.5346   0.0000   0.0000   0.0000   0.3106
  15.000   0.6492   0.17747   0.17240  -0.0493  0.1013  0.9999  -1.4368   0.0000   0.0000   0.0000   0.3177
  16.000   0.6692   0.19219   0.18716  -0.0523  0.0889  0.9999  -1.4942   0.0000   0.0000   0.0000   0.3189
  17.000   0.6621   0.19884   0.19382  -0.0589  0.0791  0.9999  -1.3491   0.0000   0.0000   0.0000   0.3289
  18.000   0.6719   0.21068   0.20567  -0.0640  0.0721  0.9999  -1.2813   0.0000   0.0000   0.0000   0.3343
  19.000   0.6959   0.22689   0.22197  -0.0667  0.0633  0.9999  -1.3408   0.0000   0.0000   0.0000   0.3339
  20.000   0.6985   0.23515   0.23027  -0.0736  0.0569  0.9999  -1.1775   0.0000   0.0000   0.0000   0.3424
  21.000   0.7249   0.25423   0.24942  -0.0760  0.0514  0.9999  -1.3093   0.0000   0.0000   0.0000   0.3407
  22.000   0.7255   0.26107   0.25629  -0.0835  0.0478  0.9999  -1.1653   0.0000   0.0000   0.0000   0.3497
  23.000   0.7414   0.27487   0.27021  -0.0877  0.0413  0.9999  -1.2252   0.0000   0.0000   0.0000   0.3515
  24.000   0.7535   0.28931   0.28470  -0.0928  0.0394  0.9999  -1.1904   0.0000   0.0000   0.0000   0.3549
  25.000   0.7635   0.30141   0.29687  -0.0988  0.0355  0.9999  -1.1001   0.0000   0.0000   0.0000   0.3597
  26.000   0.7756   0.31532   0.31091  -0.1037  0.0316  0.9999  -1.0885   0.0000   0.0000   0.0000   0.3622
  27.000   0.7920   0.33544   0.33110  -0.1072  0.0296  0.9999  -1.1419   0.0000   0.0000   0.0000   0.3621
  28.000   0.7955   0.34405   0.33978  -0.1141  0.0283  0.9999  -1.0458   0.0000   0.0000   0.0000   0.3683
  29.000   0.8044   0.35787   0.35370  -0.1196  0.0250  0.9999  -1.0455   0.0000   0.0000   0.0000   0.3715
  30.000   0.8126   0.37211   0.36808  -0.1246  0.0226  0.9999  -1.0728   0.0000   0.0000   0.0000   0.3740


