xflr5 v6.61

 Calculated polar for: SJ4_7_00

 1 1 Reynolds number fixed          Mach number fixed         

 xtrf =   1.000 (top)        1.000 (bottom)
 Mach =   0.200     Re =     0.075 e 6     Ncrit =   9.000

  alpha     CL        CD       CDp       Cm    Top Xtr Bot Xtr   Cpmin    Chinge    XCp    
 ------- -------- --------- --------- -------- ------- ------- -------- --------- ---------
 -27.000  -1.0936   0.35256   0.34669   0.1498  1.0001  0.0219  -1.8607   0.0000   0.0000   0.0000   0.3627
 -26.000  -1.0622   0.34004   0.33409   0.1401  1.0001  0.0237  -1.7923   0.0000   0.0000   0.0000   0.3597
 -25.000  -1.0291   0.32830   0.32226   0.1300  1.0001  0.0258  -1.7587   0.0000   0.0000   0.0000   0.3560
 -24.000  -0.9946   0.31671   0.31062   0.1196  1.0001  0.0281  -1.7399   0.0000   0.0000   0.0000   0.3517
 -23.000  -0.9611   0.31157   0.30546   0.1069  1.0001  0.0298  -1.8067   0.0000   0.0000   0.0000   0.3444
 -22.000  -0.9253   0.29326   0.28712   0.0989  1.0001  0.0312  -1.7088   0.0000   0.0000   0.0000   0.3415
 -21.000  -0.8893   0.27873   0.27254   0.0911  1.0001  0.0344  -1.6059   0.0000   0.0000   0.0000   0.3384
 -20.000  -0.8532   0.26615   0.25995   0.0819  1.0001  0.0384  -1.6203   0.0000   0.0000   0.0000   0.3333
 -19.000  -0.8225   0.26027   0.25410   0.0696  1.0001  0.0410  -1.7682   0.0000   0.0000   0.0000   0.3233
 -18.000  -0.7828   0.23975   0.23354   0.0639  1.0001  0.0435  -1.6707   0.0000   0.0000   0.0000   0.3214
 -17.000  -0.7469   0.22585   0.21963   0.0567  1.0001  0.0490  -1.6028   0.0000   0.0000   0.0000   0.3166
 -16.000  -0.7265   0.22042   0.21428   0.0445  1.0001  0.0534  -1.7476   0.0000   0.0000   0.0000   0.3032
 -15.000  -0.6816   0.19835   0.19216   0.0417  1.0001  0.0605  -1.5271   0.0000   0.0000   0.0000   0.3037
 -14.000  -0.6703   0.19133   0.18524   0.0304  1.0001  0.0663  -1.6773   0.0000   0.0000   0.0000   0.2889
 -13.000  -0.6260   0.17026   0.16418   0.0284  1.0001  0.0748  -1.5627   0.0000   0.0000   0.0000   0.2895
 -12.000  -0.6089   0.15650   0.15052   0.0210  1.0001  0.0820  -1.6598   0.0000   0.0000   0.0000   0.2794
 -11.000  -0.6022   0.14490   0.13904   0.0124  1.0001  0.0930  -1.7720   0.0000   0.0000   0.0000   0.2662
 -10.000  -0.5810   0.12884   0.12303   0.0081  1.0001  0.1063  -1.7490   0.0000   0.0000   0.0000   0.2600
  -9.000  -0.5596   0.11253   0.10685   0.0049  1.0001  0.1236  -1.6901   0.0000   0.0000   0.0000   0.2554
  -8.000  -0.5495   0.09849   0.09299  -0.0007  1.0001  0.1463  -1.6840   0.0000   0.0000   0.0000   0.2459
  -7.000  -0.5371   0.08341   0.07811  -0.0073  1.0001  0.1726  -1.6581   0.0000   0.0000   0.0000   0.2342
  -6.000  -0.5128   0.06772   0.06244  -0.0173  1.0001  0.2202  -1.7012   0.0000   0.0000   0.0000   0.2145
  -5.000  -0.4249   0.03909   0.03187  -0.0373  1.0001  0.0877  -2.3578   0.0000   0.0000   0.0000   0.1600
  -4.000  -0.3240   0.02594   0.01635  -0.0351  1.0001  0.0787  -2.4181   0.0000   0.0000   0.0000   0.1392
  -3.000  -0.2202   0.01852   0.00841  -0.0311  1.0001  0.1206  -2.0445   0.0000   0.0000   0.0000   0.1062
  -2.000  -0.1096   0.01261   0.00539  -0.0266  1.0001  0.9999  -1.4705   0.0000   0.0000   0.0000   0.0043
  -1.000  -0.0183   0.01271   0.00446  -0.0234  1.0001  0.9999  -0.7752   0.0000   0.0000   0.0000  -1.0364
   0.000   0.0769   0.01323   0.00446  -0.0214  1.0001  0.9999  -0.3172   0.0000   0.0000   0.0000   0.5278
   1.000   0.1709   0.01427   0.00536  -0.0204  1.0001  0.9999  -0.4271   0.0000   0.0000   0.0000   0.3675
   2.000   0.2811   0.01628   0.00756  -0.0248  0.9900  0.9999  -0.5860   0.0000   0.0000   0.0000   0.3363
   3.000   0.5296   0.01583   0.00808  -0.0481  0.8708  0.9999  -1.0936   0.0000   0.0000   0.0000   0.3385
   4.000   0.6405   0.01522   0.00748  -0.0386  0.6441  0.9999  -1.7347   0.0000   0.0000   0.0000   0.3073
   5.000   0.7238   0.01865   0.00951  -0.0298  0.3241  0.9999  -2.5391   0.0000   0.0000   0.0000   0.2874
   6.000   0.8125   0.02556   0.01539  -0.0248  0.1284  0.9999  -3.2987   0.0000   0.0000   0.0000   0.2758
   7.000   0.9071   0.03595   0.02668  -0.0204  0.0774  0.9999  -3.9209   0.0000   0.0000   0.0000   0.2671
   8.000   0.9522   0.05332   0.04661  -0.0143  0.0699  0.9999  -3.9163   0.0000   0.0000   0.0000   0.2591
   9.000   0.9205   0.07638   0.07102  -0.0142  0.0791  0.9999  -3.4936   0.0000   0.0000   0.0000   0.2591
  10.000   0.8374   0.12303   0.11768  -0.0477  0.1833  0.9999  -2.2396   0.0000   0.0000   0.0000   0.3008
  11.000   0.8337   0.14055   0.13512  -0.0534  0.1569  0.9999  -2.1690   0.0000   0.0000   0.0000   0.3070
  12.000   0.8267   0.15820   0.15262  -0.0621  0.1410  0.9999  -2.0176   0.0000   0.0000   0.0000   0.3172
  13.000   0.8323   0.17406   0.16844  -0.0701  0.1236  0.9999  -1.9017   0.0000   0.0000   0.0000   0.3253
  14.000   0.8563   0.18998   0.18434  -0.0755  0.1049  0.9999  -1.9373   0.0000   0.0000   0.0000   0.3283
  15.000   0.8776   0.20539   0.19970  -0.0839  0.0933  0.9999  -1.9155   0.0000   0.0000   0.0000   0.3346
  16.000   0.9043   0.22075   0.21502  -0.0923  0.0836  0.9999  -1.8965   0.0000   0.0000   0.0000   0.3399
  17.000   0.9368   0.23663   0.23093  -0.0997  0.0745  0.9999  -1.9212   0.0000   0.0000   0.0000   0.3429
  18.000   0.9846   0.26101   0.25538  -0.1028  0.0637  0.9999  -2.0911   0.0000   0.0000   0.0000   0.3396
  19.000   1.0010   0.26495   0.25924  -0.1187  0.0586  0.9999  -1.8369   0.0000   0.0000   0.0000   0.3523
  20.000   1.0487   0.29255   0.28696  -0.1211  0.0516  0.9999  -2.1240   0.0000   0.0000   0.0000   0.3477
  21.000   1.0697   0.29345   0.28780  -0.1375  0.0485  0.9999  -1.9257   0.0000   0.0000   0.0000   0.3590
  22.000   1.1050   0.30763   0.30204  -0.1462  0.0417  0.9999  -2.0305   0.0000   0.0000   0.0000   0.3610
  23.000   1.1392   0.32437   0.31879  -0.1552  0.0395  0.9999  -2.0703   0.0000   0.0000   0.0000   0.3631
  24.000   1.1722   0.33373   0.32818  -0.1681  0.0357  0.9999  -1.9721   0.0000   0.0000   0.0000   0.3682
  25.000   1.2054   0.34680   0.34136  -0.1780  0.0318  0.9999  -2.0020   0.0000   0.0000   0.0000   0.3704
  26.000   1.2399   0.37328   0.36791  -0.1838  0.0296  0.9999  -2.1534   0.0000   0.0000   0.0000   0.3689
  27.000   1.2685   0.37273   0.36738  -0.1994  0.0285  0.9999  -2.0017   0.0000   0.0000   0.0000   0.3754
  28.000   1.2996   0.38380   0.37855  -0.2111  0.0251  0.9999  -2.0432   0.0000   0.0000   0.0000   0.3782
  29.000   1.3283   0.39548   0.39033  -0.2218  0.0227  0.9999  -2.1405   0.0000   0.0000   0.0000   0.3801


