xflr5 v6.61

 Calculated polar for: SJ4_12_86

 1 1 Reynolds number fixed          Mach number fixed         

 xtrf =   1.000 (top)        1.000 (bottom)
 Mach =   0.200     Re =     0.500 e 6     Ncrit =   9.000

  alpha     CL        CD       CDp       Cm    Top Xtr Bot Xtr   Cpmin    Chinge    XCp    
 ------- -------- --------- --------- -------- ------- ------- -------- --------- ---------
 -30.000  -0.6335   0.31782   0.31584   0.0725  1.0001  0.0084  -1.0160   0.0000   0.0000   0.0000   0.3375
 -29.000  -0.6220   0.30413   0.30211   0.0662  1.0001  0.0092  -1.1532   0.0000   0.0000   0.0000   0.3306
 -28.000  -0.6070   0.29315   0.29110   0.0606  1.0001  0.0097  -1.0729   0.0000   0.0000   0.0000   0.3262
 -27.000  -0.5918   0.28161   0.27952   0.0547  1.0001  0.0109  -1.0682   0.0000   0.0000   0.0000   0.3204
 -26.000  -0.5784   0.26825   0.26613   0.0485  1.0001  0.0117  -1.1972   0.0000   0.0000   0.0000   0.3126
 -25.000  -0.5600   0.25802   0.25586   0.0431  1.0001  0.0127  -1.0996   0.0000   0.0000   0.0000   0.3074
 -24.000  -0.5493   0.24464   0.24246   0.0361  1.0001  0.0143  -1.3533   0.0000   0.0000   0.0000   0.2964
 -23.000  -0.5262   0.23482   0.23261   0.0316  1.0001  0.0151  -1.1598   0.0000   0.0000   0.0000   0.2925
 -21.000  -0.4909   0.21253   0.21027   0.0205  1.0001  0.0183  -1.2221   0.0000   0.0000   0.0000   0.2757
 -20.000  -0.4839   0.19963   0.19736   0.0132  1.0001  0.0207  -1.4849   0.0000   0.0000   0.0000   0.2610
 -19.000  -0.4560   0.19095   0.18865   0.0097  1.0001  0.0222  -1.2789   0.0000   0.0000   0.0000   0.2563
 -18.000  -0.4463   0.17880   0.17649   0.0035  1.0001  0.0249  -1.4735   0.0000   0.0000   0.0000   0.2428
 -17.000  -0.4262   0.16956   0.16723  -0.0009  1.0001  0.0277  -1.4047   0.0000   0.0000   0.0000   0.2335
 -16.000  -0.4186   0.15820   0.15587  -0.0064  1.0001  0.0300  -1.5287   0.0000   0.0000   0.0000   0.2206
 -15.000  -0.8683   0.09990   0.09700  -0.0209  1.0001  0.0191  -6.4788   0.0000   0.0000   0.0000   0.2050
 -14.000  -0.9853   0.06252   0.05892  -0.0452  1.0001  0.0187  -7.5347   0.0000   0.0000   0.0000   0.1852
 -13.000  -1.0270   0.04099   0.03668  -0.0600  1.0001  0.0191  -7.6496   0.0000   0.0000   0.0000   0.1750
 -12.000  -1.0327   0.03066   0.02564  -0.0582  1.0001  0.0201  -7.3233   0.0000   0.0000   0.0000   0.1791
 -11.000  -1.0092   0.02485   0.01934  -0.0483  1.0001  0.0217  -6.7446   0.0000   0.0000   0.0000   0.1891
 -10.000  -0.9634   0.02164   0.01572  -0.0375  1.0001  0.0245  -6.0586   0.0000   0.0000   0.0000   0.1994
  -9.000  -0.9054   0.01853   0.01236  -0.0281  1.0001  0.0287  -5.3611   0.0000   0.0000   0.0000   0.2085
  -8.000  -0.8173   0.01593   0.00962  -0.0241  0.9984  0.0374  -4.5516   0.0000   0.0000   0.0000   0.2111
  -7.000  -0.6764   0.01383   0.00747  -0.0300  0.9902  0.0582  -3.5999   0.0000   0.0000   0.0000   0.1968
  -6.000  -0.5263   0.01232   0.00601  -0.0376  0.9822  0.0935  -2.7193   0.0000   0.0000   0.0000   0.1700
  -5.000  -0.3760   0.01094   0.00483  -0.0452  0.9721  0.1500  -1.9526   0.0000   0.0000   0.0000   0.1211
  -4.000  -0.2456   0.00976   0.00396  -0.0481  0.9532  0.2309  -1.3815   0.0000   0.0000   0.0000   0.0446
  -3.000  -0.1364   0.00871   0.00326  -0.0460  0.9248  0.3360  -1.0234   0.0000   0.0000   0.0000  -0.0990
  -2.000  -0.0286   0.00773   0.00269  -0.0436  0.8840  0.4677  -0.7546   0.0000   0.0000   0.0000  -1.3083
  -1.000   0.0819   0.00694   0.00229  -0.0417  0.8237  0.6292  -0.5441   0.0000   0.0000   0.0000   0.7634
   0.000   0.1898   0.00658   0.00223  -0.0389  0.7369  0.8072  -0.6130   0.0000   0.0000   0.0000   0.4535
   1.000   0.2873   0.00705   0.00255  -0.0334  0.6388  0.9247  -0.7468   0.0000   0.0000   0.0000   0.3628
   2.000   0.3955   0.00772   0.00279  -0.0306  0.5371  0.9761  -0.9141   0.0000   0.0000   0.0000   0.3231
   3.000   0.5561   0.00865   0.00321  -0.0405  0.4278  0.9948  -1.1677   0.0000   0.0000   0.0000   0.3177
   4.000   0.6755   0.00948   0.00365  -0.0421  0.3416  0.9999  -1.4270   0.0000   0.0000   0.0000   0.3064
   5.000   0.7673   0.01035   0.00425  -0.0377  0.2742  0.9999  -1.7019   0.0000   0.0000   0.0000   0.2923
   6.000   0.8629   0.01144   0.00510  -0.0341  0.2166  0.9999  -2.0323   0.0000   0.0000   0.0000   0.2816
   7.000   0.9650   0.01279   0.00628  -0.0319  0.1688  0.9999  -2.4387   0.0000   0.0000   0.0000   0.2741
   8.000   1.0669   0.01429   0.00773  -0.0298  0.1315  0.9999  -2.9679   0.0000   0.0000   0.0000   0.2677
   9.000   1.1632   0.01614   0.00955  -0.0268  0.1021  0.9999  -3.5917   0.0000   0.0000   0.0000   0.2615
  10.000   1.2519   0.01827   0.01175  -0.0227  0.0795  0.9999  -4.2876   0.0000   0.0000   0.0000   0.2552
  11.000   1.3239   0.02085   0.01449  -0.0162  0.0628  0.9999  -5.0067   0.0000   0.0000   0.0000   0.2477
  12.000   1.3737   0.02466   0.01846  -0.0080  0.0499  0.9999  -5.6780   0.0000   0.0000   0.0000   0.2397
  13.000   1.4153   0.02966   0.02380  -0.0014  0.0403  0.9999  -6.3618   0.0000   0.0000   0.0000   0.2330
  14.000   1.4320   0.03791   0.03243   0.0027  0.0337  0.9999  -6.9176   0.0000   0.0000   0.0000   0.2280
  15.000   1.4207   0.05137   0.04635   0.0016  0.0296  0.9999  -7.3005   0.0000   0.0000   0.0000   0.2265
  16.000   1.3832   0.07048   0.06591  -0.0049  0.0271  0.9999  -7.4735   0.0000   0.0000   0.0000   0.2288
  17.000   1.3282   0.09356   0.08949  -0.0143  0.0256  0.9999  -7.4411   0.0000   0.0000   0.0000   0.2338
  18.000   1.2780   0.11737   0.11371  -0.0254  0.0240  0.9999  -7.3687   0.0000   0.0000   0.0000   0.2408
  19.000   1.2403   0.13993   0.13651  -0.0372  0.0223  0.9999  -7.3173   0.0000   0.0000   0.0000   0.2486
  20.000   1.1978   0.16591   0.16297  -0.0530  0.0211  0.9999  -7.0420   0.0000   0.0000   0.0000   0.2610
  21.000   1.1499   0.19593   0.19338  -0.0732  0.0198  0.9999  -6.4653   0.0000   0.0000   0.0000   0.2789


