xflr5 v6.61

 Calculated polar for: SJ4_8_00

 1 1 Reynolds number fixed          Mach number fixed         

 xtrf =   1.000 (top)        1.000 (bottom)
 Mach =   0.200     Re =     0.060 e 6     Ncrit =   9.000

  alpha     CL        CD       CDp       Cm    Top Xtr Bot Xtr   Cpmin    Chinge    XCp    
 ------- -------- --------- --------- -------- ------- ------- -------- --------- ---------
 -27.000  -1.0741   0.34953   0.34286   0.1434  1.0001  0.0317  -1.8524   0.0000   0.0000   0.0000   0.3574
 -26.000  -1.0419   0.33715   0.33040   0.1338  1.0001  0.0345  -1.7759   0.0000   0.0000   0.0000   0.3544
 -25.000  -1.0083   0.32588   0.31904   0.1234  1.0001  0.0383  -1.7371   0.0000   0.0000   0.0000   0.3503
 -24.000  -0.9755   0.32038   0.31351   0.1108  1.0001  0.0408  -1.7771   0.0000   0.0000   0.0000   0.3435
 -23.000  -0.9412   0.30589   0.29903   0.1012  1.0001  0.0420  -1.7455   0.0000   0.0000   0.0000   0.3390
 -22.000  -0.9040   0.28901   0.28204   0.0940  1.0001  0.0462  -1.6488   0.0000   0.0000   0.0000   0.3370
 -21.000  -0.8683   0.27719   0.27019   0.0844  1.0001  0.0513  -1.6574   0.0000   0.0000   0.0000   0.3317
 -20.000  -0.8431   0.27651   0.26957   0.0709  1.0001  0.0535  -1.8101   0.0000   0.0000   0.0000   0.3203
 -19.000  -0.7965   0.25067   0.24368   0.0671  1.0001  0.0599  -1.6095   0.0000   0.0000   0.0000   0.3214
 -18.000  -0.7689   0.24405   0.23706   0.0556  1.0001  0.0662  -1.6815   0.0000   0.0000   0.0000   0.3108
 -17.000  -0.7269   0.22414   0.21715   0.0507  1.0001  0.0718  -1.5362   0.0000   0.0000   0.0000   0.3091
 -16.000  -0.7045   0.21649   0.20957   0.0401  1.0001  0.0795  -1.6265   0.0000   0.0000   0.0000   0.2976
 -15.000  -0.6621   0.19704   0.19007   0.0361  1.0001  0.0881  -1.5427   0.0000   0.0000   0.0000   0.2959
 -14.000  -0.6354   0.18347   0.17658   0.0290  1.0001  0.0968  -1.5723   0.0000   0.0000   0.0000   0.2879
 -13.000  -0.6106   0.16972   0.16291   0.0231  1.0001  0.1103  -1.5696   0.0000   0.0000   0.0000   0.2808
 -12.000  -0.5884   0.15553   0.14879   0.0177  1.0001  0.1243  -1.5581   0.0000   0.0000   0.0000   0.2739
 -11.000  -0.5667   0.14097   0.13428   0.0134  1.0001  0.1410  -1.5248   0.0000   0.0000   0.0000   0.2680
 -10.000  -0.5613   0.12806   0.12153   0.0072  1.0001  0.1613  -1.5676   0.0000   0.0000   0.0000   0.2579
  -9.000  -0.5384   0.11253   0.10612   0.0048  1.0001  0.1861  -1.5743   0.0000   0.0000   0.0000   0.2547
  -8.000  -0.5563   0.10069   0.09461  -0.0024  1.0001  0.2187  -1.6960   0.0000   0.0000   0.0000   0.2423
  -7.000  -0.5248   0.08500   0.07903  -0.0003  1.0001  0.2641  -1.6307   0.0000   0.0000   0.0000   0.2466
  -5.000  -0.4364   0.03475   0.02583  -0.0361  1.0001  0.0963  -2.5586   0.0000   0.0000   0.0000   0.1640
  -4.000  -0.3375   0.02491   0.01436  -0.0325  1.0001  0.1199  -2.3220   0.0000   0.0000   0.0000   0.1504
  -3.000  -0.2401   0.01719   0.00829  -0.0279  1.0001  0.4174  -1.9953   0.0000   0.0000   0.0000   0.1307
  -2.000  -0.1168   0.01473   0.00656  -0.0247  1.0001  0.9999  -1.1993   0.0000   0.0000   0.0000   0.0348
  -1.000  -0.0352   0.01482   0.00570  -0.0205  1.0001  0.9999  -0.6768   0.0000   0.0000   0.0000  -0.3385
   0.000   0.0542   0.01548   0.00582  -0.0181  1.0001  0.9999  -0.3468   0.0000   0.0000   0.0000   0.5830
   1.000   0.1425   0.01681   0.00697  -0.0169  1.0001  0.9999  -0.4408   0.0000   0.0000   0.0000   0.3664
   2.000   0.2408   0.01940   0.00969  -0.0206  0.9927  0.9999  -0.5745   0.0000   0.0000   0.0000   0.3329
   3.000   0.5123   0.01977   0.01100  -0.0491  0.8648  0.9999  -1.0223   0.0000   0.0000   0.0000   0.3431
   4.000   0.6465   0.01819   0.00968  -0.0420  0.6782  0.9999  -1.4939   0.0000   0.0000   0.0000   0.3117
   5.000   0.7357   0.02070   0.01129  -0.0321  0.4376  0.9999  -2.1088   0.0000   0.0000   0.0000   0.2896
   6.000   0.8220   0.02569   0.01541  -0.0256  0.2381  0.9999  -2.8160   0.0000   0.0000   0.0000   0.2762
   7.000   0.9138   0.03405   0.02411  -0.0209  0.1394  0.9999  -3.4714   0.0000   0.0000   0.0000   0.2670
   8.000   0.9864   0.04708   0.03832  -0.0158  0.1022  0.9999  -3.8842   0.0000   0.0000   0.0000   0.2593
   9.000   0.9704   0.06675   0.06023  -0.0103  0.0966  0.9999  -3.6904   0.0000   0.0000   0.0000   0.2534
  10.000   0.9129   0.08922   0.08317  -0.0133  0.1019  0.9999  -3.3711   0.0000   0.0000   0.0000   0.2566
  11.000   0.7971   0.13970   0.13336  -0.0572  0.2279  0.9999  -1.9227   0.0000   0.0000   0.0000   0.3141
  12.000   0.8238   0.15852   0.15224  -0.0587  0.1973  0.9999  -1.9987   0.0000   0.0000   0.0000   0.3127
  13.000   0.8143   0.17247   0.16607  -0.0672  0.1756  0.9999  -1.8755   0.0000   0.0000   0.0000   0.3230
  14.000   0.8383   0.18901   0.18259  -0.0722  0.1541  0.9999  -1.8834   0.0000   0.0000   0.0000   0.3255
  15.000   0.8583   0.20340   0.19694  -0.0798  0.1352  0.9999  -1.8323   0.0000   0.0000   0.0000   0.3312
  16.000   0.8870   0.21857   0.21211  -0.0870  0.1199  0.9999  -1.8272   0.0000   0.0000   0.0000   0.3350
  17.000   0.9203   0.23407   0.22765  -0.0938  0.1044  0.9999  -1.8994   0.0000   0.0000   0.0000   0.3376
  18.000   0.9486   0.24778   0.24133  -0.1037  0.0943  0.9999  -1.8736   0.0000   0.0000   0.0000   0.3435
  19.000   0.9822   0.26271   0.25625  -0.1123  0.0863  0.9999  -1.8797   0.0000   0.0000   0.0000   0.3470
  20.000   1.0231   0.28271   0.27635  -0.1181  0.0760  0.9999  -1.9761   0.0000   0.0000   0.0000   0.3465
  21.000   1.0501   0.28996   0.28360  -0.1311  0.0677  0.9999  -1.8720   0.0000   0.0000   0.0000   0.3542
  22.000   1.0872   0.30823   0.30190  -0.1385  0.0631  0.9999  -1.9951   0.0000   0.0000   0.0000   0.3550
  23.000   1.1183   0.31696   0.31065  -0.1512  0.0566  0.9999  -1.9547   0.0000   0.0000   0.0000   0.3608
  24.000   1.1580   0.34263   0.33645  -0.1563  0.0515  0.9999  -2.1480   0.0000   0.0000   0.0000   0.3587
  25.000   1.1851   0.34304   0.33687  -0.1720  0.0475  0.9999  -1.9903   0.0000   0.0000   0.0000   0.3665
  26.000   1.2178   0.35583   0.34974  -0.1820  0.0425  0.9999  -2.0262   0.0000   0.0000   0.0000   0.3685
  27.000   1.2514   0.38007   0.37405  -0.1889  0.0399  0.9999  -2.1370   0.0000   0.0000   0.0000   0.3678
  28.000   1.2795   0.38033   0.37439  -0.2042  0.0380  0.9999  -2.0181   0.0000   0.0000   0.0000   0.3737
  29.000   1.3092   0.39137   0.38551  -0.2157  0.0343  0.9999  -2.0690   0.0000   0.0000   0.0000   0.3762
  30.000   1.3367   0.40406   0.39832  -0.2256  0.0308  0.9999  -2.1927   0.0000   0.0000   0.0000   0.3774


