xflr5 v6.61

 Calculated polar for: SJ4_11_06

 1 1 Reynolds number fixed          Mach number fixed         

 xtrf =   1.000 (top)        1.000 (bottom)
 Mach =   0.200     Re =     0.025 e 6     Ncrit =   9.000

  alpha     CL        CD       CDp       Cm    Top Xtr Bot Xtr   Cpmin    Chinge    XCp    
 ------- -------- --------- --------- -------- ------- ------- -------- --------- ---------
 -29.000  -1.0781   0.36310   0.35253   0.1453  1.0001  0.0993  -1.7904   0.0000   0.0000   0.0000   0.3477
 -28.000  -1.0504   0.36102   0.35033   0.1330  1.0001  0.1059  -1.8023   0.0000   0.0000   0.0000   0.3423
 -27.000  -1.0155   0.34244   0.33166   0.1242  1.0001  0.1122  -1.7439   0.0000   0.0000   0.0000   0.3401
 -26.000  -0.9869   0.33973   0.32890   0.1124  1.0001  0.1200  -1.7563   0.0000   0.0000   0.0000   0.3341
 -25.000  -0.9489   0.32071   0.30977   0.1043  1.0001  0.1297  -1.6751   0.0000   0.0000   0.0000   0.3320
 -24.000  -0.9162   0.31087   0.29991   0.0942  1.0001  0.1378  -1.6566   0.0000   0.0000   0.0000   0.3269
 -23.000  -0.8849   0.30418   0.29315   0.0841  1.0001  0.1492  -1.6586   0.0000   0.0000   0.0000   0.3211
 -22.000  -0.8459   0.28770   0.27662   0.0763  1.0001  0.1622  -1.6046   0.0000   0.0000   0.0000   0.3178
 -21.000  -0.8095   0.27490   0.26378   0.0681  1.0001  0.1763  -1.5604   0.0000   0.0000   0.0000   0.3133
 -20.000  -0.7735   0.26239   0.25127   0.0601  1.0001  0.1911  -1.5289   0.0000   0.0000   0.0000   0.3084
 -19.000  -0.7399   0.25136   0.24024   0.0523  1.0001  0.2084  -1.5207   0.0000   0.0000   0.0000   0.3028
 -18.000  -0.7099   0.24124   0.23020   0.0449  1.0001  0.2269  -1.5133   0.0000   0.0000   0.0000   0.2967
 -17.000  -0.6667   0.22402   0.21293   0.0394  1.0001  0.2507  -1.4448   0.0000   0.0000   0.0000   0.2936
 -16.000  -0.6350   0.21184   0.20083   0.0336  1.0001  0.2765  -1.4361   0.0000   0.0000   0.0000   0.2885
 -15.000  -0.6027   0.19894   0.18797   0.0289  1.0001  0.3074  -1.4248   0.0000   0.0000   0.0000   0.2845
 -14.000  -0.5665   0.18451   0.17358   0.0253  1.0001  0.3457  -1.3902   0.0000   0.0000   0.0000   0.2820
 -13.000  -0.5381   0.17147   0.16061   0.0225  1.0001  0.3873  -1.3687   0.0000   0.0000   0.0000   0.2800
 -12.000  -0.5040   0.15713   0.14632   0.0211  1.0001  0.4433  -1.3588   0.0000   0.0000   0.0000   0.2806
 -11.000  -0.4722   0.14299   0.13222   0.0208  1.0001  0.5087  -1.3424   0.0000   0.0000   0.0000   0.2833
 -10.000  -0.4380   0.12862   0.11789   0.0218  1.0001  0.5910  -1.3140   0.0000   0.0000   0.0000   0.2893
  -9.000  -0.3788   0.11093   0.10011   0.0206  1.0001  0.6972  -1.2754   0.0000   0.0000   0.0000   0.2937
  -8.000  -0.3190   0.09465   0.08364   0.0178  1.0001  0.8167  -1.2154   0.0000   0.0000   0.0000   0.2944
  -7.000  -0.5412   0.07814   0.06829  -0.0119  1.0001  0.3201  -1.9927   0.0000   0.0000   0.0000   0.2226
  -6.000  -0.5438   0.06001   0.05006  -0.0147  1.0001  0.3287  -2.1000   0.0000   0.0000   0.0000   0.2182
  -5.000  -0.5068   0.04569   0.03513  -0.0123  1.0001  0.3906  -2.0186   0.0000   0.0000   0.0000   0.2214
  -4.000  -0.4410   0.03669   0.02587  -0.0027  1.0001  0.5340  -1.7563   0.0000   0.0000   0.0000   0.2398
  -3.000  -0.0615   0.03036   0.01771  -0.0345  1.0001  0.9999  -0.8122   0.0000   0.0000   0.0000  -0.3308
  -2.000  -0.0978   0.02649   0.01361  -0.0236  1.0001  0.9999  -0.7771   0.0000   0.0000   0.0000  -0.0000
  -1.000  -0.0773   0.02582   0.01215  -0.0133  1.0001  0.9999  -0.6419   0.0000   0.0000   0.0000   0.0717
   0.000  -0.0202   0.02663   0.01227  -0.0080  1.0001  0.9999  -0.4904   0.0000   0.0000   0.0000  -0.1481
   1.000   0.0446   0.02857   0.01383  -0.0053  1.0001  0.9999  -0.4698   0.0000   0.0000   0.0000   0.3622
   2.000   0.1067   0.03190   0.01703  -0.0049  1.0001  0.9999  -0.5478   0.0000   0.0000   0.0000   0.2887
   3.000   0.1623   0.03696   0.02218  -0.0068  1.0001  0.9999  -0.6220   0.0000   0.0000   0.0000   0.2843
   4.000   0.3244   0.04691   0.03266  -0.0308  0.9182  0.9999  -0.8007   0.0000   0.0000   0.0000   0.3387
   5.000   0.5107   0.05560   0.04222  -0.0485  0.7603  0.9999  -1.0648   0.0000   0.0000   0.0000   0.3392
   6.000   0.6175   0.06392   0.05122  -0.0496  0.6382  0.9999  -1.2791   0.0000   0.0000   0.0000   0.3243
   7.000   0.6816   0.07498   0.06279  -0.0473  0.5494  0.9999  -1.4446   0.0000   0.0000   0.0000   0.3127
   8.000   0.6857   0.09088   0.07888  -0.0476  0.5054  0.9999  -1.4708   0.0000   0.0000   0.0000   0.3118
   9.000   0.6433   0.11191   0.09992  -0.0566  0.5675  0.9999  -1.3263   0.0000   0.0000   0.0000   0.3293
  10.000   0.5799   0.12680   0.11478  -0.0639  0.7300  0.9999  -1.1566   0.0000   0.0000   0.0000   0.3497
  11.000   0.6244   0.14233   0.13064  -0.0665  0.6540  0.9999  -1.2446   0.0000   0.0000   0.0000   0.3453
  12.000   0.6725   0.15917   0.14776  -0.0692  0.5809  0.9999  -1.3439   0.0000   0.0000   0.0000   0.3409
  13.000   0.7069   0.17371   0.16251  -0.0709  0.5164  0.9999  -1.4180   0.0000   0.0000   0.0000   0.3374
  14.000   0.7505   0.19063   0.17967  -0.0737  0.4569  0.9999  -1.5066   0.0000   0.0000   0.0000   0.3344
  15.000   0.7847   0.20571   0.19486  -0.0771  0.4086  0.9999  -1.5640   0.0000   0.0000   0.0000   0.3333
  16.000   0.8134   0.21792   0.20719  -0.0814  0.3650  0.9999  -1.5983   0.0000   0.0000   0.0000   0.3338
  17.000   0.8495   0.23323   0.22258  -0.0867  0.3294  0.9999  -1.6486   0.0000   0.0000   0.0000   0.3344
  18.000   0.8825   0.24648   0.23591  -0.0929  0.2977  0.9999  -1.6796   0.0000   0.0000   0.0000   0.3361
  19.000   0.9229   0.26355   0.25307  -0.0991  0.2687  0.9999  -1.7366   0.0000   0.0000   0.0000   0.3367
  20.000   0.9507   0.27226   0.26185  -0.1074  0.2436  0.9999  -1.7493   0.0000   0.0000   0.0000   0.3404
  21.000   0.9905   0.28971   0.27937  -0.1146  0.2227  0.9999  -1.7910   0.0000   0.0000   0.0000   0.3414
  22.000   1.0205   0.29887   0.28861  -0.1240  0.2047  0.9999  -1.8107   0.0000   0.0000   0.0000   0.3452
  23.000   1.0542   0.31075   0.30056  -0.1331  0.1867  0.9999  -1.8409   0.0000   0.0000   0.0000   0.3478
  24.000   1.0882   0.32330   0.31320  -0.1425  0.1723  0.9999  -1.8595   0.0000   0.0000   0.0000   0.3503
  25.000   1.1217   0.33567   0.32569  -0.1522  0.1588  0.9999  -1.9008   0.0000   0.0000   0.0000   0.3528
  26.000   1.1555   0.34940   0.33951  -0.1618  0.1474  0.9999  -1.9465   0.0000   0.0000   0.0000   0.3547
  27.000   1.1915   0.36909   0.35936  -0.1703  0.1355  0.9999  -2.0113   0.0000   0.0000   0.0000   0.3552
  28.000   1.2182   0.37193   0.36231  -0.1826  0.1249  0.9999  -1.9943   0.0000   0.0000   0.0000   0.3593
  29.000   1.2472   0.38245   0.37295  -0.1939  0.1182  0.9999  -2.0290   0.0000   0.0000   0.0000   0.3619


