xflr5 v6.61

 Calculated polar for: SJ4_7_45

 1 1 Reynolds number fixed          Mach number fixed         

 xtrf =   1.000 (top)        1.000 (bottom)
 Mach =   0.200     Re =     0.070 e 6     Ncrit =   9.000

  alpha     CL        CD       CDp       Cm    Top Xtr Bot Xtr   Cpmin    Chinge    XCp    
 ------- -------- --------- --------- -------- ------- ------- -------- --------- ---------
 -25.000  -0.6398   0.27951   0.27417   0.0615  1.0001  0.0330  -0.9903   0.0000   0.0000   0.0000   0.3335
 -24.000  -0.6237   0.26747   0.26202   0.0562  1.0001  0.0367  -0.9658   0.0000   0.0000   0.0000   0.3286
 -23.000  -0.6085   0.25690   0.25138   0.0503  1.0001  0.0401  -0.9778   0.0000   0.0000   0.0000   0.3223
 -22.000  -0.6040   0.25388   0.24831   0.0432  1.0001  0.0412  -1.1387   0.0000   0.0000   0.0000   0.3122
 -21.000  -0.5737   0.23260   0.22697   0.0401  1.0001  0.0447  -1.0361   0.0000   0.0000   0.0000   0.3114
 -20.000  -0.5555   0.22150   0.21578   0.0351  1.0001  0.0498  -1.0472   0.0000   0.0000   0.0000   0.3056
 -19.000  -0.5494   0.21701   0.21126   0.0283  1.0001  0.0533  -1.1759   0.0000   0.0000   0.0000   0.2947
 -18.000  -0.5202   0.19983   0.19405   0.0253  1.0001  0.0590  -1.0619   0.0000   0.0000   0.0000   0.2926
 -17.000  -0.5098   0.19261   0.18681   0.0196  1.0001  0.0658  -1.1149   0.0000   0.0000   0.0000   0.2829
 -16.000  -0.4876   0.17943   0.17359   0.0161  1.0001  0.0706  -1.0853   0.0000   0.0000   0.0000   0.2780
 -15.000  -0.4818   0.17285   0.16699   0.0110  1.0001  0.0791  -1.1945   0.0000   0.0000   0.0000   0.2682
 -14.000  -0.4593   0.15984   0.15399   0.0085  1.0001  0.0867  -1.1794   0.0000   0.0000   0.0000   0.2642
 -13.000  -0.4878   0.15935   0.15354   0.0027  1.0001  0.0933  -1.4104   0.0000   0.0000   0.0000   0.2516
 -12.000  -0.4746   0.14619   0.14038  -0.0003  1.0001  0.1068  -1.4101   0.0000   0.0000   0.0000   0.2457
 -11.000  -0.4729   0.13358   0.12786  -0.0040  1.0001  0.1207  -1.4516   0.0000   0.0000   0.0000   0.2383
 -10.000  -0.4373   0.11572   0.11003  -0.0035  1.0001  0.1386  -1.3104   0.0000   0.0000   0.0000   0.2390
  -9.000  -0.4357   0.10171   0.09614  -0.0063  1.0001  0.1598  -1.3381   0.0000   0.0000   0.0000   0.2330
  -8.000  -0.4306   0.08628   0.08084  -0.0079  1.0001  0.1835  -1.3844   0.0000   0.0000   0.0000   0.2295
  -7.000  -0.4575   0.07212   0.06698  -0.0117  1.0001  0.2179  -1.4948   0.0000   0.0000   0.0000   0.2228
  -5.000  -0.4311   0.03667   0.02871  -0.0367  1.0001  0.0898  -2.4847   0.0000   0.0000   0.0000   0.1623
  -4.000  -0.3315   0.02498   0.01499  -0.0335  1.0001  0.0917  -2.3750   0.0000   0.0000   0.0000   0.1460
  -3.000  -0.2298   0.01771   0.00795  -0.0293  1.0001  0.1964  -2.0515   0.0000   0.0000   0.0000   0.1195
  -2.000  -0.1143   0.01333   0.00578  -0.0254  1.0001  0.9999  -1.3250   0.0000   0.0000   0.0000   0.0245
  -1.000  -0.0276   0.01343   0.00492  -0.0217  1.0001  0.9999  -0.7277   0.0000   0.0000   0.0000  -0.5430
   0.000   0.0650   0.01401   0.00499  -0.0195  1.0001  0.9999  -0.3238   0.0000   0.0000   0.0000   0.5496
   1.000   0.1566   0.01518   0.00600  -0.0184  1.0001  0.9999  -0.4299   0.0000   0.0000   0.0000   0.3659
   2.000   0.2736   0.01741   0.00842  -0.0247  0.9862  0.9999  -0.5921   0.0000   0.0000   0.0000   0.3379
   3.000   0.5229   0.01705   0.00899  -0.0481  0.8657  0.9999  -1.0498   0.0000   0.0000   0.0000   0.3394
   4.000   0.6401   0.01607   0.00810  -0.0391  0.6594  0.9999  -1.6292   0.0000   0.0000   0.0000   0.3079
   5.000   0.7254   0.01912   0.00996  -0.0299  0.3704  0.9999  -2.3362   0.0000   0.0000   0.0000   0.2873
   6.000   0.8129   0.02511   0.01497  -0.0244  0.1676  0.9999  -3.1068   0.0000   0.0000   0.0000   0.2753
   7.000   0.9065   0.03471   0.02533  -0.0199  0.0964  0.9999  -3.6767   0.0000   0.0000   0.0000   0.2664
   8.000   0.9640   0.05009   0.04273  -0.0140  0.0806  0.9999  -3.9072   0.0000   0.0000   0.0000   0.2583
   9.000   0.9345   0.07220   0.06647  -0.0117  0.0840  0.9999  -3.5663   0.0000   0.0000   0.0000   0.2559
  10.000   0.7328   0.09255   0.08719  -0.0159  0.1002  0.9999  -2.6097   0.0000   0.0000   0.0000   0.2652
  11.000   0.8230   0.14065   0.13493  -0.0534  0.1832  0.9999  -2.0923   0.0000   0.0000   0.0000   0.3077
  12.000   0.8366   0.15850   0.15277  -0.0569  0.1560  0.9999  -2.1021   0.0000   0.0000   0.0000   0.3098
  13.000   0.8256   0.17318   0.16732  -0.0674  0.1394  0.9999  -1.9245   0.0000   0.0000   0.0000   0.3225
  14.000   0.8425   0.18873   0.18282  -0.0745  0.1229  0.9999  -1.8592   0.0000   0.0000   0.0000   0.3282
  15.000   0.8696   0.20424   0.19832  -0.0808  0.1055  0.9999  -1.8966   0.0000   0.0000   0.0000   0.3316
  16.000   0.8954   0.21929   0.21333  -0.0893  0.0939  0.9999  -1.8938   0.0000   0.0000   0.0000   0.3371
  17.000   0.9253   0.23451   0.22857  -0.0978  0.0849  0.9999  -1.8889   0.0000   0.0000   0.0000   0.3418
  18.000   0.9630   0.25233   0.24641  -0.1038  0.0756  0.9999  -1.9639   0.0000   0.0000   0.0000   0.3426
  19.000   0.9940   0.26456   0.25865  -0.1137  0.0652  0.9999  -1.9382   0.0000   0.0000   0.0000   0.3476
  20.000   1.0252   0.27801   0.27207  -0.1246  0.0609  0.9999  -1.8546   0.0000   0.0000   0.0000   0.3532
  21.000   1.0608   0.29230   0.28646  -0.1332  0.0534  0.9999  -1.9597   0.0000   0.0000   0.0000   0.3556
  22.000   1.0947   0.30746   0.30161  -0.1429  0.0505  0.9999  -1.9932   0.0000   0.0000   0.0000   0.3588
  23.000   1.1282   0.31868   0.31287  -0.1543  0.0438  0.9999  -1.9859   0.0000   0.0000   0.0000   0.3631
  24.000   1.1669   0.34484   0.33915  -0.1593  0.0400  0.9999  -2.1855   0.0000   0.0000   0.0000   0.3609
  25.000   1.1949   0.34544   0.33975  -0.1750  0.0381  0.9999  -1.9945   0.0000   0.0000   0.0000   0.3686
  26.000   1.2276   0.35750   0.35188  -0.1860  0.0339  0.9999  -1.9697   0.0000   0.0000   0.0000   0.3715
  27.000   1.2588   0.37161   0.36608  -0.1952  0.0307  0.9999  -2.0464   0.0000   0.0000   0.0000   0.3726
  28.000   1.2889   0.38971   0.38425  -0.2046  0.0294  0.9999  -2.1401   0.0000   0.0000   0.0000   0.3738
  29.000   1.3186   0.39375   0.38836  -0.2190  0.0272  0.9999  -2.0798   0.0000   0.0000   0.0000   0.3785
  30.000   1.3468   0.40483   0.39953  -0.2304  0.0245  0.9999  -2.1279   0.0000   0.0000   0.0000   0.3807


