xflr5 v6.61

 Calculated polar for: SJ4_8_70

 1 1 Reynolds number fixed          Mach number fixed         

 xtrf =   1.000 (top)        1.000 (bottom)
 Mach =   0.200     Re =     0.050 e 6     Ncrit =   9.000

  alpha     CL        CD       CDp       Cm    Top Xtr Bot Xtr   Cpmin    Chinge    XCp    
 ------- -------- --------- --------- -------- ------- ------- -------- --------- ---------
 -26.000  -1.0307   0.33601   0.32856   0.1295  1.0001  0.0453  -1.7832   0.0000   0.0000   0.0000   0.3503
 -25.000  -0.9970   0.32403   0.31651   0.1197  1.0001  0.0495  -1.7130   0.0000   0.0000   0.0000   0.3467
 -24.000  -0.9638   0.31629   0.30873   0.1080  1.0001  0.0535  -1.7370   0.0000   0.0000   0.0000   0.3406
 -23.000  -0.9287   0.30135   0.29375   0.0989  1.0001  0.0563  -1.7170   0.0000   0.0000   0.0000   0.3368
 -22.000  -0.8924   0.28806   0.28040   0.0903  1.0001  0.0626  -1.6622   0.0000   0.0000   0.0000   0.3331
 -21.000  -0.8647   0.28576   0.27813   0.0774  1.0001  0.0667  -1.7593   0.0000   0.0000   0.0000   0.3232
 -20.000  -0.8210   0.26274   0.25503   0.0721  1.0001  0.0723  -1.6081   0.0000   0.0000   0.0000   0.3226
 -19.000  -0.7911   0.25528   0.24759   0.0612  1.0001  0.0795  -1.6324   0.0000   0.0000   0.0000   0.3136
 -18.000  -0.7499   0.23683   0.22914   0.0554  1.0001  0.0876  -1.5562   0.0000   0.0000   0.0000   0.3112
 -17.000  -0.7201   0.22542   0.21777   0.0462  1.0001  0.0953  -1.6011   0.0000   0.0000   0.0000   0.3027
 -16.000  -0.6911   0.21439   0.20676   0.0383  1.0001  0.1067  -1.6078   0.0000   0.0000   0.0000   0.2950
 -15.000  -0.6531   0.19748   0.18987   0.0331  1.0001  0.1184  -1.5358   0.0000   0.0000   0.0000   0.2911
 -14.000  -0.6242   0.18369   0.17611   0.0270  1.0001  0.1320  -1.5027   0.0000   0.0000   0.0000   0.2846
 -13.000  -0.6094   0.17251   0.16504   0.0202  1.0001  0.1489  -1.5442   0.0000   0.0000   0.0000   0.2754
 -12.000  -0.5833   0.15668   0.14931   0.0158  1.0001  0.1659  -1.5520   0.0000   0.0000   0.0000   0.2701
 -11.000  -0.5586   0.14191   0.13458   0.0125  1.0001  0.1898  -1.5408   0.0000   0.0000   0.0000   0.2660
 -10.000  -0.5420   0.12776   0.12056   0.0093  1.0001  0.2188  -1.5421   0.0000   0.0000   0.0000   0.2615
  -9.000  -0.5271   0.11346   0.10642   0.0071  1.0001  0.2545  -1.5291   0.0000   0.0000   0.0000   0.2586
  -8.000  -0.5198   0.10003   0.09319   0.0055  1.0001  0.2965  -1.5323   0.0000   0.0000   0.0000   0.2565
  -7.000  -0.4966   0.08604   0.07937   0.0080  1.0001  0.3577  -1.5257   0.0000   0.0000   0.0000   0.2625
  -6.000  -0.5244   0.04917   0.04098  -0.0362  1.0001  0.1209  -2.5465   0.0000   0.0000   0.0000   0.1774
  -5.000  -0.4493   0.03443   0.02472  -0.0342  1.0001  0.1265  -2.5065   0.0000   0.0000   0.0000   0.1703
  -4.000  -0.3521   0.02522   0.01446  -0.0302  1.0001  0.1853  -2.2253   0.0000   0.0000   0.0000   0.1605
  -3.000  -0.2667   0.01828   0.00973  -0.0217  1.0001  0.5861  -1.8236   0.0000   0.0000   0.0000   0.1651
  -2.000  -0.1188   0.01663   0.00762  -0.0237  1.0001  0.9999  -1.0593   0.0000   0.0000   0.0000   0.0459
  -1.000  -0.0476   0.01667   0.00672  -0.0183  1.0001  0.9999  -0.6333   0.0000   0.0000   0.0000  -0.1398
   0.000   0.0363   0.01739   0.00690  -0.0154  1.0001  0.9999  -0.3713   0.0000   0.0000   0.0000   0.6740
   1.000   0.1201   0.01890   0.00819  -0.0140  1.0001  0.9999  -0.4447   0.0000   0.0000   0.0000   0.3640
   2.000   0.1966   0.02169   0.01104  -0.0144  1.0001  0.9999  -0.5522   0.0000   0.0000   0.0000   0.3200
   3.000   0.4696   0.02412   0.01433  -0.0469  0.8775  0.9999  -0.9248   0.0000   0.0000   0.0000   0.3467
   4.000   0.6455   0.02160   0.01250  -0.0458  0.7085  0.9999  -1.3964   0.0000   0.0000   0.0000   0.3175
   5.000   0.7398   0.02322   0.01353  -0.0342  0.4951  0.9999  -1.9166   0.0000   0.0000   0.0000   0.2920
   6.000   0.8289   0.02798   0.01765  -0.0268  0.3139  0.9999  -2.5279   0.0000   0.0000   0.0000   0.2772
   7.000   0.9166   0.03556   0.02537  -0.0212  0.1993  0.9999  -3.1266   0.0000   0.0000   0.0000   0.2671
   8.000   0.9848   0.04746   0.03839  -0.0155  0.1438  0.9999  -3.5599   0.0000   0.0000   0.0000   0.2588
   9.000   0.9836   0.06588   0.05853  -0.0101  0.1288  0.9999  -3.5203   0.0000   0.0000   0.0000   0.2527
  11.000   0.7689   0.14036   0.13318  -0.0595  0.2924  0.9999  -1.7881   0.0000   0.0000   0.0000   0.3193
  12.000   0.7866   0.15741   0.15025  -0.0619  0.2569  0.9999  -1.8088   0.0000   0.0000   0.0000   0.3197
  13.000   0.7984   0.17271   0.16556  -0.0663  0.2264  0.9999  -1.7792   0.0000   0.0000   0.0000   0.3230
  14.000   0.8243   0.18913   0.18199  -0.0708  0.2000  0.9999  -1.8089   0.0000   0.0000   0.0000   0.3247
  15.000   0.8619   0.20766   0.20056  -0.0746  0.1733  0.9999  -1.8911   0.0000   0.0000   0.0000   0.3244
  16.000   0.8737   0.21843   0.21129  -0.0840  0.1567  0.9999  -1.8099   0.0000   0.0000   0.0000   0.3326
  17.000   0.9028   0.23219   0.22505  -0.0917  0.1368  0.9999  -1.8033   0.0000   0.0000   0.0000   0.3366
  18.000   0.9350   0.24665   0.23951  -0.0999  0.1229  0.9999  -1.8408   0.0000   0.0000   0.0000   0.3404
  19.000   0.9677   0.26069   0.25359  -0.1087  0.1105  0.9999  -1.8574   0.0000   0.0000   0.0000   0.3443
  20.000   1.0013   0.27459   0.26750  -0.1177  0.0995  0.9999  -1.8627   0.0000   0.0000   0.0000   0.3479
  21.000   1.0405   0.29299   0.28595  -0.1246  0.0910  0.9999  -1.9197   0.0000   0.0000   0.0000   0.3485
  22.000   1.0715   0.30269   0.29572  -0.1357  0.0810  0.9999  -1.9348   0.0000   0.0000   0.0000   0.3534
  23.000   1.1040   0.31511   0.30816  -0.1466  0.0746  0.9999  -1.9400   0.0000   0.0000   0.0000   0.3575
  24.000   1.1423   0.33465   0.32781  -0.1534  0.0668  0.9999  -2.0725   0.0000   0.0000   0.0000   0.3571
  25.000   1.1711   0.34117   0.33435  -0.1670  0.0634  0.9999  -1.9772   0.0000   0.0000   0.0000   0.3631
  26.000   1.2041   0.35407   0.34734  -0.1769  0.0565  0.9999  -2.0113   0.0000   0.0000   0.0000   0.3651
  27.000   1.2353   0.36774   0.36106  -0.1874  0.0535  0.9999  -2.0343   0.0000   0.0000   0.0000   0.3675
  28.000   1.2657   0.37708   0.37052  -0.1997  0.0485  0.9999  -2.0495   0.0000   0.0000   0.0000   0.3709
  29.000   1.2958   0.39323   0.38680  -0.2084  0.0442  0.9999  -2.1815   0.0000   0.0000   0.0000   0.3713
  30.000   1.3232   0.40341   0.39702  -0.2206  0.0429  0.9999  -2.1672   0.0000   0.0000   0.0000   0.3743


