xflr5 v6.61

 Calculated polar for: SJ4_12_86

 1 1 Reynolds number fixed          Mach number fixed         

 xtrf =   1.000 (top)        1.000 (bottom)
 Mach =   0.200     Re =     0.125 e 6     Ncrit =   9.000

  alpha     CL        CD       CDp       Cm    Top Xtr Bot Xtr   Cpmin    Chinge    XCp    
 ------- -------- --------- --------- -------- ------- ------- -------- --------- ---------
 -30.000  -1.0815   0.36516   0.36029   0.1526  1.0001  0.0243  -1.9665   0.0000   0.0000   0.0000   0.3463
 -29.000  -1.0512   0.35423   0.34931   0.1421  1.0001  0.0253  -1.9067   0.0000   0.0000   0.0000   0.3431
 -28.000  -1.0192   0.34365   0.33869   0.1314  1.0001  0.0278  -1.8689   0.0000   0.0000   0.0000   0.3394
 -27.000  -0.9868   0.33248   0.32749   0.1196  1.0001  0.0292  -1.9122   0.0000   0.0000   0.0000   0.3341
 -26.000  -0.9525   0.32103   0.31599   0.1102  1.0001  0.0315  -1.7973   0.0000   0.0000   0.0000   0.3310
 -25.000  -0.9206   0.31120   0.30615   0.0971  1.0001  0.0339  -1.9325   0.0000   0.0000   0.0000   0.3228
 -24.000  -0.8825   0.29734   0.29223   0.0898  1.0001  0.0367  -1.7631   0.0000   0.0000   0.0000   0.3213
 -23.000  -0.8523   0.28793   0.28284   0.0763  1.0001  0.0395  -1.9011   0.0000   0.0000   0.0000   0.3109
 -22.000  -0.8105   0.27262   0.26747   0.0704  1.0001  0.0426  -1.7081   0.0000   0.0000   0.0000   0.3100
 -21.000  -0.7775   0.26025   0.25512   0.0592  1.0001  0.0465  -1.7891   0.0000   0.0000   0.0000   0.3009
 -20.000  -0.7381   0.24716   0.24200   0.0519  1.0001  0.0512  -1.6767   0.0000   0.0000   0.0000   0.2967
 -19.000  -0.7046   0.23363   0.22849   0.0423  1.0001  0.0548  -1.7024   0.0000   0.0000   0.0000   0.2878
 -18.000  -0.6822   0.22392   0.21881   0.0302  1.0001  0.0618  -1.8338   0.0000   0.0000   0.0000   0.2737
 -17.000  -0.6335   0.20694   0.20182   0.0269  1.0001  0.0667  -1.6430   0.0000   0.0000   0.0000   0.2729
 -16.000  -0.6092   0.19277   0.18769   0.0172  1.0001  0.0730  -1.7154   0.0000   0.0000   0.0000   0.2599
 -15.000  -0.6063   0.18208   0.17706   0.0051  1.0001  0.0824  -1.9069   0.0000   0.0000   0.0000   0.2417
 -14.000  -0.5488   0.16465   0.15960   0.0050  1.0001  0.0908  -1.6764   0.0000   0.0000   0.0000   0.2429
 -13.000  -0.5279   0.14980   0.14480  -0.0011  1.0001  0.1006  -1.6885   0.0000   0.0000   0.0000   0.2329
 -11.000  -0.7147   0.06759   0.06255  -0.0533  1.0001  0.0613  -3.9074   0.0000   0.0000   0.0000   0.1620
 -10.000  -0.8103   0.04910   0.04321  -0.0523  1.0001  0.0606  -4.2970   0.0000   0.0000   0.0000   0.1741
  -9.000  -0.8156   0.03811   0.03122  -0.0415  1.0001  0.0658  -4.1977   0.0000   0.0000   0.0000   0.1889
  -8.000  -0.7725   0.03041   0.02253  -0.0321  1.0001  0.0781  -3.8574   0.0000   0.0000   0.0000   0.1992
  -7.000  -0.7022   0.02519   0.01680  -0.0252  1.0001  0.1009  -3.3699   0.0000   0.0000   0.0000   0.2057
  -6.000  -0.6203   0.02164   0.01300  -0.0199  1.0001  0.1382  -2.8334   0.0000   0.0000   0.0000   0.2103
  -5.000  -0.5317   0.01926   0.01069  -0.0159  1.0001  0.1936  -2.2791   0.0000   0.0000   0.0000   0.2130
  -4.000  -0.4384   0.01759   0.00935  -0.0133  1.0001  0.2798  -1.7646   0.0000   0.0000   0.0000   0.2131
  -3.000  -0.3445   0.01662   0.00904  -0.0116  1.0001  0.4138  -1.3384   0.0000   0.0000   0.0000   0.2104
  -2.000  -0.1691   0.01587   0.00946  -0.0239  0.9718  0.6660  -0.9161   0.0000   0.0000   0.0000   0.1011
  -1.000  -0.0160   0.01599   0.01016  -0.0267  0.9308  0.9062  -0.6297   0.0000   0.0000   0.0000  -1.4566
   0.000   0.2639   0.01538   0.00932  -0.0559  0.9005  0.9902  -0.6541   0.0000   0.0000   0.0000   0.4606
   1.000   0.3955   0.01361   0.00733  -0.0577  0.8232  0.9999  -0.8205   0.0000   0.0000   0.0000   0.3930
   2.000   0.4865   0.01307   0.00633  -0.0510  0.7190  0.9999  -0.9835   0.0000   0.0000   0.0000   0.3510
   3.000   0.5769   0.01364   0.00629  -0.0451  0.6052  0.9999  -1.1732   0.0000   0.0000   0.0000   0.3232
   4.000   0.6653   0.01481   0.00691  -0.0393  0.4979  0.9999  -1.3923   0.0000   0.0000   0.0000   0.3033
   5.000   0.7546   0.01642   0.00805  -0.0342  0.4044  0.9999  -1.6518   0.0000   0.0000   0.0000   0.2885
   6.000   0.8467   0.01842   0.00968  -0.0300  0.3254  0.9999  -1.9594   0.0000   0.0000   0.0000   0.2776
   7.000   0.9391   0.02084   0.01191  -0.0262  0.2602  0.9999  -2.3226   0.0000   0.0000   0.0000   0.2689
   8.000   1.0292   0.02372   0.01485  -0.0222  0.2080  0.9999  -2.7696   0.0000   0.0000   0.0000   0.2615
   9.000   1.1171   0.02736   0.01846  -0.0183  0.1680  0.9999  -3.3055   0.0000   0.0000   0.0000   0.2550
  10.000   1.1932   0.03171   0.02323  -0.0130  0.1366  0.9999  -3.8651   0.0000   0.0000   0.0000   0.2482
  11.000   1.2591   0.03705   0.02884  -0.0072  0.1119  0.9999  -4.4459   0.0000   0.0000   0.0000   0.2415
  12.000   1.2767   0.04374   0.03640   0.0035  0.0952  0.9999  -4.8445   0.0000   0.0000   0.0000   0.2315
  13.000   1.2614   0.05337   0.04678   0.0121  0.0841  0.9999  -5.1000   0.0000   0.0000   0.0000   0.2229
  14.000   1.2307   0.06680   0.06076   0.0142  0.0764  0.9999  -5.2623   0.0000   0.0000   0.0000   0.2190
  15.000   1.0907   0.09957   0.09454  -0.0020  0.0768  0.9999  -4.6438   0.0000   0.0000   0.0000   0.2303
  17.000   0.5931   0.17876   0.17428  -0.0336  0.1136  0.9999  -1.3594   0.0000   0.0000   0.0000   0.2914
  18.000   0.5971   0.18965   0.18524  -0.0389  0.1014  0.9999  -1.3120   0.0000   0.0000   0.0000   0.2991
  19.000   0.6028   0.20094   0.19659  -0.0445  0.0906  0.9999  -1.2471   0.0000   0.0000   0.0000   0.3070
  20.000   0.6127   0.21268   0.20839  -0.0499  0.0813  0.9999  -1.2077   0.0000   0.0000   0.0000   0.3137
  21.000   0.6258   0.22459   0.22037  -0.0549  0.0736  0.9999  -1.1838   0.0000   0.0000   0.0000   0.3190
  22.000   0.6549   0.23892   0.23478  -0.0575  0.0668  0.9999  -1.3153   0.0000   0.0000   0.0000   0.3174
  23.000   0.6562   0.24844   0.24436  -0.0646  0.0591  0.9999  -1.1916   0.0000   0.0000   0.0000   0.3270
  24.000   0.6657   0.26128   0.25727  -0.0706  0.0537  0.9999  -1.1324   0.0000   0.0000   0.0000   0.3334
  25.000   0.6831   0.27441   0.27046  -0.0748  0.0496  0.9999  -1.1784   0.0000   0.0000   0.0000   0.3352
  26.000   0.6927   0.28640   0.28254  -0.0808  0.0439  0.9999  -1.1389   0.0000   0.0000   0.0000   0.3408
  27.000   0.7025   0.29991   0.29612  -0.0867  0.0404  0.9999  -1.0859   0.0000   0.0000   0.0000   0.3459


