xflr5 v6.61

 Calculated polar for: SJ4_8_00

 1 1 Reynolds number fixed          Mach number fixed         

 xtrf =   1.000 (top)        1.000 (bottom)
 Mach =   0.200     Re =     0.070 e 6     Ncrit =   9.000

  alpha     CL        CD       CDp       Cm    Top Xtr Bot Xtr   Cpmin    Chinge    XCp    
 ------- -------- --------- --------- -------- ------- ------- -------- --------- ---------
 -20.000  -0.8327   0.26324   0.25676   0.0762  1.0001  0.0457  -1.6544   0.0000   0.0000   0.0000   0.3273
 -19.000  -0.7968   0.25082   0.24433   0.0672  1.0001  0.0512  -1.6383   0.0000   0.0000   0.0000   0.3214
 -18.000  -0.7678   0.24134   0.23489   0.0560  1.0001  0.0543  -1.7201   0.0000   0.0000   0.0000   0.3113
 -17.000  -0.7265   0.22358   0.21708   0.0511  1.0001  0.0617  -1.5465   0.0000   0.0000   0.0000   0.3097
 -16.000  -0.7119   0.21938   0.21299   0.0386  1.0001  0.0664  -1.7080   0.0000   0.0000   0.0000   0.2949
 -15.000  -0.6618   0.19611   0.18965   0.0363  1.0001  0.0745  -1.5558   0.0000   0.0000   0.0000   0.2961
 -14.000  -0.6451   0.18515   0.17880   0.0267  1.0001  0.0807  -1.6853   0.0000   0.0000   0.0000   0.2836
 -13.000  -0.6169   0.17064   0.16432   0.0213  1.0001  0.0925  -1.6498   0.0000   0.0000   0.0000   0.2775
 -12.000  -0.5938   0.15576   0.14951   0.0161  1.0001  0.1058  -1.6264   0.0000   0.0000   0.0000   0.2708
 -11.000  -0.5757   0.14102   0.13487   0.0107  1.0001  0.1195  -1.6170   0.0000   0.0000   0.0000   0.2631
 -10.000  -0.5726   0.12759   0.12157   0.0033  1.0001  0.1342  -1.6765   0.0000   0.0000   0.0000   0.2510
  -9.000  -0.5413   0.11045   0.10452   0.0023  1.0001  0.1530  -1.6230   0.0000   0.0000   0.0000   0.2499
  -7.000  -0.5409   0.08247   0.07699  -0.0116  1.0001  0.2180  -1.7640   0.0000   0.0000   0.0000   0.2257
  -6.000  -0.5114   0.05325   0.04656  -0.0365  1.0001  0.1208  -2.3957   0.0000   0.0000   0.0000   0.1756
  -5.000  -0.4351   0.03310   0.02459  -0.0360  1.0001  0.0850  -2.6040   0.0000   0.0000   0.0000   0.1641
  -4.000  -0.3362   0.02343   0.01333  -0.0321  1.0001  0.1032  -2.3540   0.0000   0.0000   0.0000   0.1511
  -3.000  -0.2379   0.01627   0.00758  -0.0281  1.0001  0.3650  -2.0165   0.0000   0.0000   0.0000   0.1288
  -2.000  -0.1177   0.01375   0.00623  -0.0246  1.0001  0.9999  -1.2102   0.0000   0.0000   0.0000   0.0373
  -1.000  -0.0350   0.01387   0.00545  -0.0205  1.0001  0.9999  -0.6794   0.0000   0.0000   0.0000  -0.3418
   0.000   0.0554   0.01456   0.00564  -0.0183  1.0001  0.9999  -0.3461   0.0000   0.0000   0.0000   0.5805
   1.000   0.1443   0.01594   0.00686  -0.0174  1.0001  0.9999  -0.4418   0.0000   0.0000   0.0000   0.3684
   2.000   0.3120   0.01820   0.00935  -0.0329  0.9602  0.9999  -0.6427   0.0000   0.0000   0.0000   0.3529
   3.000   0.5340   0.01706   0.00897  -0.0489  0.8411  0.9999  -1.0711   0.0000   0.0000   0.0000   0.3389
   4.000   0.6448   0.01647   0.00827  -0.0397  0.6475  0.9999  -1.5086   0.0000   0.0000   0.0000   0.3083
   5.000   0.7339   0.01918   0.01002  -0.0315  0.4091  0.9999  -2.1333   0.0000   0.0000   0.0000   0.2888
   6.000   0.8212   0.02390   0.01399  -0.0259  0.2162  0.9999  -2.8614   0.0000   0.0000   0.0000   0.2765
   7.000   0.9139   0.03153   0.02179  -0.0215  0.1224  0.9999  -3.5582   0.0000   0.0000   0.0000   0.2676
   8.000   0.9879   0.04348   0.03505  -0.0161  0.0869  0.9999  -4.0131   0.0000   0.0000   0.0000   0.2595
   9.000   0.9867   0.06289   0.05660  -0.0099  0.0835  0.9999  -3.8808   0.0000   0.0000   0.0000   0.2527
  10.000   0.9228   0.08471   0.07907  -0.0113  0.0882  0.9999  -3.5355   0.0000   0.0000   0.0000   0.2541
  11.000   0.6568   0.12784   0.12227  -0.0344  0.2109  0.9999  -1.6956   0.0000   0.0000   0.0000   0.2959
  12.000   0.6240   0.14072   0.13509  -0.0389  0.1916  0.9999  -1.5152   0.0000   0.0000   0.0000   0.3053
  13.000   0.6222   0.15207   0.14647  -0.0400  0.1677  0.9999  -1.4867   0.0000   0.0000   0.0000   0.3067
  14.000   0.6163   0.16203   0.15645  -0.0433  0.1492  0.9999  -1.4137   0.0000   0.0000   0.0000   0.3122
  15.000   0.6496   0.17860   0.17312  -0.0444  0.1289  0.9999  -1.5028   0.0000   0.0000   0.0000   0.3094
  16.000   0.6566   0.19039   0.18494  -0.0483  0.1155  0.9999  -1.4411   0.0000   0.0000   0.0000   0.3138
  17.000   0.6653   0.20201   0.19659  -0.0524  0.1022  0.9999  -1.4082   0.0000   0.0000   0.0000   0.3183
  18.000   0.6619   0.20876   0.20337  -0.0584  0.0907  0.9999  -1.3175   0.0000   0.0000   0.0000   0.3268
  19.000   0.6683   0.21962   0.21428  -0.0642  0.0828  0.9999  -1.2362   0.0000   0.0000   0.0000   0.3337
  20.000   0.6894   0.23481   0.22953  -0.0676  0.0757  0.9999  -1.2714   0.0000   0.0000   0.0000   0.3346
  21.000   0.6985   0.24486   0.23965  -0.0733  0.0657  0.9999  -1.2038   0.0000   0.0000   0.0000   0.3402
  22.000   0.7104   0.25790   0.25273  -0.0785  0.0619  0.9999  -1.1456   0.0000   0.0000   0.0000   0.3446
  23.000   0.7234   0.27038   0.26533  -0.0837  0.0546  0.9999  -1.1540   0.0000   0.0000   0.0000   0.3485
  24.000   0.7415   0.28746   0.28248  -0.0876  0.0512  0.9999  -1.2154   0.0000   0.0000   0.0000   0.3493
  25.000   0.7476   0.29722   0.29232  -0.0943  0.0462  0.9999  -1.1120   0.0000   0.0000   0.0000   0.3558
  26.000   0.7627   0.31237   0.30761  -0.0984  0.0409  0.9999  -1.1626   0.0000   0.0000   0.0000   0.3569
  27.000   0.7724   0.32696   0.32226  -0.1038  0.0395  0.9999  -1.0988   0.0000   0.0000   0.0000   0.3605
  28.000   0.7802   0.33906   0.33445  -0.1099  0.0362  0.9999  -1.0115   0.0000   0.0000   0.0000   0.3652
  29.000   0.7897   0.35309   0.34859  -0.1150  0.0326  0.9999  -1.0411   0.0000   0.0000   0.0000   0.3680


