xflr5 v6.61

 Calculated polar for: SJ4_7_00

 1 1 Reynolds number fixed          Mach number fixed         

 xtrf =   1.000 (top)        1.000 (bottom)
 Mach =   0.200     Re =     0.125 e 6     Ncrit =   9.000

  alpha     CL        CD       CDp       Cm    Top Xtr Bot Xtr   Cpmin    Chinge    XCp    
 ------- -------- --------- --------- -------- ------- ------- -------- --------- ---------
 -30.000  -0.7130   0.34247   0.33883   0.0931  1.0001  0.0125  -0.9367   0.0000   0.0000   0.0000   0.3603
 -29.000  -0.7016   0.32988   0.32616   0.0873  1.0001  0.0134  -0.9339   0.0000   0.0000   0.0000   0.3559
 -28.000  -0.6902   0.31922   0.31542   0.0809  1.0001  0.0141  -1.0026   0.0000   0.0000   0.0000   0.3503
 -27.000  -0.6783   0.30655   0.30269   0.0750  1.0001  0.0145  -1.0819   0.0000   0.0000   0.0000   0.3453
 -26.000  -0.6630   0.29187   0.28794   0.0703  1.0001  0.0156  -1.0121   0.0000   0.0000   0.0000   0.3422
 -25.000  -0.6480   0.27963   0.27563   0.0648  1.0001  0.0170  -1.0086   0.0000   0.0000   0.0000   0.3376
 -24.000  -0.6323   0.26759   0.26350   0.0593  1.0001  0.0186  -1.0109   0.0000   0.0000   0.0000   0.3326
 -23.000  -0.6160   0.25644   0.25229   0.0534  1.0001  0.0202  -1.0365   0.0000   0.0000   0.0000   0.3267
 -22.000  -0.6056   0.24963   0.24545   0.0466  1.0001  0.0208  -1.1237   0.0000   0.0000   0.0000   0.3179
 -21.000  -0.5823   0.23239   0.22818   0.0430  1.0001  0.0224  -1.0542   0.0000   0.0000   0.0000   0.3156
 -20.000  -0.5637   0.22104   0.21675   0.0382  1.0001  0.0251  -1.0538   0.0000   0.0000   0.0000   0.3104
 -19.000  -0.5458   0.21027   0.20595   0.0330  1.0001  0.0282  -1.1088   0.0000   0.0000   0.0000   0.3038
 -18.000  -0.5377   0.20459   0.20025   0.0261  1.0001  0.0299  -1.2791   0.0000   0.0000   0.0000   0.2926
 -17.000  -0.5145   0.18941   0.18506   0.0225  1.0001  0.0312  -1.2348   0.0000   0.0000   0.0000   0.2883
 -16.000  -0.4937   0.17816   0.17376   0.0190  1.0001  0.0349  -1.1345   0.0000   0.0000   0.0000   0.2837
 -15.000  -0.4812   0.16923   0.16482   0.0139  1.0001  0.0400  -1.1691   0.0000   0.0000   0.0000   0.2746
 -14.000  -0.4747   0.15964   0.15526   0.0093  1.0001  0.0425  -1.3028   0.0000   0.0000   0.0000   0.2655
 -13.000  -0.4590   0.14912   0.14471   0.0075  1.0001  0.0485  -1.2738   0.0000   0.0000   0.0000   0.2626
 -12.000  -0.4727   0.14218   0.13781   0.0008  1.0001  0.0532  -1.5274   0.0000   0.0000   0.0000   0.2483
 -11.000  -0.4473   0.12589   0.12153   0.0003  1.0001  0.0581  -1.4285   0.0000   0.0000   0.0000   0.2474
  -7.000  -0.5364   0.07439   0.07020  -0.0209  1.0001  0.0831  -2.0232   0.0000   0.0000   0.0000   0.2087
  -4.000  -0.3208   0.02163   0.01334  -0.0338  1.0001  0.0484  -2.5958   0.0000   0.0000   0.0000   0.1419
  -3.000  -0.2176   0.01556   0.00671  -0.0302  1.0001  0.0704  -2.1289   0.0000   0.0000   0.0000   0.1082
  -2.000  -0.1101   0.01001   0.00450  -0.0265  1.0001  0.9999  -1.5153   0.0000   0.0000   0.0000   0.0058
  -1.000  -0.0152   0.01018   0.00384  -0.0240  1.0001  0.9999  -0.7792   0.0000   0.0000   0.0000  -1.3345
   0.000   0.0831   0.01076   0.00402  -0.0226  1.0001  0.9999  -0.3202   0.0000   0.0000   0.0000   0.5217
   1.000   0.2073   0.01180   0.00496  -0.0275  0.9890  0.9999  -0.4545   0.0000   0.0000   0.0000   0.3813
   2.000   0.4166   0.01160   0.00508  -0.0460  0.9215  0.9999  -0.7602   0.0000   0.0000   0.0000   0.3585
   3.000   0.5400   0.01086   0.00453  -0.0429  0.7836  0.9999  -1.1448   0.0000   0.0000   0.0000   0.3271
   4.000   0.6350   0.01218   0.00506  -0.0357  0.5285  0.9999  -1.7712   0.0000   0.0000   0.0000   0.3031
   5.000   0.7265   0.01537   0.00706  -0.0313  0.2419  0.9999  -2.6507   0.0000   0.0000   0.0000   0.2892
   6.000   0.8166   0.02079   0.01181  -0.0273  0.0823  0.9999  -3.5120   0.0000   0.0000   0.0000   0.2787
   7.000   0.9114   0.02936   0.02107  -0.0230  0.0475  0.9999  -4.2696   0.0000   0.0000   0.0000   0.2697
   8.000   0.9747   0.04373   0.03715  -0.0174  0.0395  0.9999  -4.5814   0.0000   0.0000   0.0000   0.2615
   9.000   0.9498   0.06606   0.06162  -0.0122  0.0456  0.9999  -3.9744   0.0000   0.0000   0.0000   0.2561
  10.000   0.7711   0.07996   0.07605  -0.0122  0.0491  0.9999  -3.2969   0.0000   0.0000   0.0000   0.2587
  11.000   0.6861   0.12195   0.11793  -0.0318  0.1039  0.9999  -2.0183   0.0000   0.0000   0.0000   0.2900
  12.000   0.6558   0.13860   0.13451  -0.0392  0.0940  0.9999  -1.7589   0.0000   0.0000   0.0000   0.3030
  13.000   0.6404   0.14988   0.14577  -0.0425  0.0823  0.9999  -1.6184   0.0000   0.0000   0.0000   0.3091
  14.000   0.6441   0.16223   0.15812  -0.0455  0.0746  0.9999  -1.5381   0.0000   0.0000   0.0000   0.3128
  15.000   0.6765   0.17900   0.17498  -0.0460  0.0637  0.9999  -1.7422   0.0000   0.0000   0.0000   0.3092
  16.000   0.6511   0.18504   0.18098  -0.0556  0.0577  0.9999  -1.4070   0.0000   0.0000   0.0000   0.3261
  17.000   0.6738   0.19983   0.19580  -0.0578  0.0511  0.9999  -1.5066   0.0000   0.0000   0.0000   0.3256
  18.000   0.6742   0.20908   0.20507  -0.0650  0.0449  0.9999  -1.3203   0.0000   0.0000   0.0000   0.3354
  19.000   0.7062   0.22815   0.22422  -0.0663  0.0400  0.9999  -1.4705   0.0000   0.0000   0.0000   0.3317
  20.000   0.7008   0.23439   0.23047  -0.0747  0.0376  0.9999  -1.1896   0.0000   0.0000   0.0000   0.3435
  21.000   0.7156   0.24687   0.24300  -0.0794  0.0316  0.9999  -1.2470   0.0000   0.0000   0.0000   0.3466
  22.000   0.7354   0.26429   0.26049  -0.0827  0.0295  0.9999  -1.3551   0.0000   0.0000   0.0000   0.3468
  23.000   0.7409   0.27363   0.26987  -0.0899  0.0274  0.9999  -1.1895   0.0000   0.0000   0.0000   0.3544
  24.000   0.7538   0.28700   0.28331  -0.0951  0.0240  0.9999  -1.1596   0.0000   0.0000   0.0000   0.3577
  25.000   0.7684   0.30175   0.29814  -0.0991  0.0214  0.9999  -1.2276   0.0000   0.0000   0.0000   0.3589
  26.000   0.7785   0.31664   0.31309  -0.1044  0.0206  0.9999  -1.1342   0.0000   0.0000   0.0000   0.3624
  27.000   0.7878   0.32906   0.32557  -0.1106  0.0183  0.9999  -1.0351   0.0000   0.0000   0.0000   0.3670
  28.000   0.7978   0.34313   0.33972  -0.1158  0.0163  0.9999  -1.0711   0.0000   0.0000   0.0000   0.3698
  29.000   0.8069   0.35745   0.35413  -0.1206  0.0148  0.9999  -1.1454   0.0000   0.0000   0.0000   0.3720
  30.000   0.8161   0.37473   0.37149  -0.1250  0.0142  0.9999  -1.1930   0.0000   0.0000   0.0000   0.3735


