xflr5 v6.61

 Calculated polar for: SJ4_8_00

 1 1 Reynolds number fixed          Mach number fixed         

 xtrf =   1.000 (top)        1.000 (bottom)
 Mach =   0.200     Re =     0.500 e 6     Ncrit =   9.000

  alpha     CL        CD       CDp       Cm    Top Xtr Bot Xtr   Cpmin    Chinge    XCp    
 ------- -------- --------- --------- -------- ------- ------- -------- --------- ---------
 -20.000  -0.8417   0.26242   0.25998   0.0816  1.0001  0.0068  -1.8582   0.0000   0.0000   0.0000   0.3323
 -19.000  -0.8059   0.24918   0.24673   0.0729  1.0001  0.0077  -1.7994   0.0000   0.0000   0.0000   0.3273
 -18.000  -0.7687   0.23481   0.23234   0.0636  1.0001  0.0093  -1.9276   0.0000   0.0000   0.0000   0.3206
 -17.000  -0.7361   0.22091   0.21845   0.0531  1.0001  0.0096  -2.0811   0.0000   0.0000   0.0000   0.3110
 -16.000  -0.7036   0.20474   0.20229   0.0469  1.0001  0.0100  -1.9834   0.0000   0.0000   0.0000   0.3065
 -15.000  -0.6717   0.19106   0.18863   0.0406  1.0001  0.0108  -1.7617   0.0000   0.0000   0.0000   0.3013
 -14.000  -0.6429   0.17638   0.17394   0.0336  1.0001  0.0124  -1.7924   0.0000   0.0000   0.0000   0.2941
 -13.000  -0.4596   0.14257   0.14032   0.0044  1.0001  0.0153  -1.7081   0.0000   0.0000   0.0000   0.2542
 -12.000  -0.4474   0.13135   0.12911   0.0011  1.0001  0.0179  -1.6124   0.0000   0.0000   0.0000   0.2475
 -11.000  -0.4455   0.11654   0.11431  -0.0052  1.0001  0.0205  -1.8264   0.0000   0.0000   0.0000   0.2336
  -6.000  -0.5191   0.01068   0.00629  -0.0319  1.0001  0.0146  -4.2276   0.0000   0.0000   0.0000   0.1848
  -5.000  -0.4416   0.01514   0.00939  -0.0296  1.0001  0.0166  -3.8236   0.0000   0.0000   0.0000   0.1791
  -4.000  -0.3410   0.01181   0.00561  -0.0266  1.0000  0.0205  -2.9762   0.0000   0.0000   0.0000   0.1684
  -3.000  -0.1897   0.00908   0.00300  -0.0347  0.9910  0.0997  -2.0435   0.0000   0.0000   0.0000   0.0632
  -2.000  -0.0358   0.00703   0.00232  -0.0443  0.9789  0.4802  -1.0382   0.0000   0.0000   0.0000  -0.9989
  -1.000   0.0839   0.00551   0.00219  -0.0439  0.9522  0.9042  -0.4479   0.0000   0.0000   0.0000   0.7749
   0.000   0.2132   0.00527   0.00183  -0.0451  0.9042  0.9999  -0.4434   0.0000   0.0000   0.0000   0.4607
   1.000   0.3134   0.00531   0.00148  -0.0410  0.8047  0.9999  -0.5881   0.0000   0.0000   0.0000   0.3794
   2.000   0.4190   0.00605   0.00153  -0.0387  0.6465  0.9999  -0.7845   0.0000   0.0000   0.0000   0.3401
   3.000   0.5273   0.00719   0.00196  -0.0375  0.4678  0.9999  -1.1163   0.0000   0.0000   0.0000   0.3184
   4.000   0.6361   0.00861   0.00271  -0.0368  0.2932  0.9999  -1.5668   0.0000   0.0000   0.0000   0.3044
   5.000   0.7449   0.01017   0.00378  -0.0362  0.1608  0.9999  -2.3403   0.0000   0.0000   0.0000   0.2943
   6.000   0.8512   0.01218   0.00541  -0.0351  0.0643  0.9999  -3.3548   0.0000   0.0000   0.0000   0.2860
   7.000   0.9540   0.01473   0.00806  -0.0330  0.0285  0.9999  -4.4780   0.0000   0.0000   0.0000   0.2783
   8.000   1.0502   0.01809   0.01181  -0.0297  0.0170  0.9999  -5.7509   0.0000   0.0000   0.0000   0.2709
   9.000   1.1280   0.02419   0.01861  -0.0242  0.0128  0.9999  -6.8021   0.0000   0.0000   0.0000   0.2628
  10.000   1.1871   0.03150   0.02681  -0.0175  0.0105  0.9999  -7.7664   0.0000   0.0000   0.0000   0.2549
  11.000   1.1609   0.04427   0.04069  -0.0064  0.0098  0.9999  -7.9399   0.0000   0.0000   0.0000   0.2444
  12.000   1.0964   0.06630   0.06359  -0.0153  0.0098  0.9999  -7.6545   0.0000   0.0000   0.0000   0.2512
  13.000   0.9149   0.13252   0.13044  -0.0545  0.0125  0.9999  -4.4027   0.0000   0.0000   0.0000   0.2976


