xflr5 v6.61

 Calculated polar for: SJ4_11_06

 1 1 Reynolds number fixed          Mach number fixed         

 xtrf =   1.000 (top)        1.000 (bottom)
 Mach =   0.200     Re =     0.125 e 6     Ncrit =   9.000

  alpha     CL        CD       CDp       Cm    Top Xtr Bot Xtr   Cpmin    Chinge    XCp    
 ------- -------- --------- --------- -------- ------- ------- -------- --------- ---------
 -30.000  -0.6531   0.32658   0.32271   0.0764  1.0001  0.0212  -0.9562   0.0000   0.0000   0.0000   0.3427
 -29.000  -0.6414   0.31417   0.31023   0.0703  1.0001  0.0221  -1.0124   0.0000   0.0000   0.0000   0.3369
 -28.000  -0.6270   0.30202   0.29801   0.0648  1.0001  0.0240  -0.9664   0.0000   0.0000   0.0000   0.3324
 -27.000  -0.6130   0.29005   0.28596   0.0587  1.0001  0.0262  -0.9895   0.0000   0.0000   0.0000   0.3264
 -26.000  -0.5986   0.27782   0.27368   0.0528  1.0001  0.0272  -1.0417   0.0000   0.0000   0.0000   0.3201
 -25.000  -0.5813   0.26609   0.26188   0.0475  1.0001  0.0302  -1.0046   0.0000   0.0000   0.0000   0.3151
 -24.000  -0.5705   0.25672   0.25245   0.0404  1.0001  0.0323  -1.1228   0.0000   0.0000   0.0000   0.3051
 -23.000  -0.5477   0.24281   0.23849   0.0363  1.0001  0.0344  -1.0295   0.0000   0.0000   0.0000   0.3018
 -22.000  -0.5310   0.23214   0.22776   0.0305  1.0001  0.0386  -1.0784   0.0000   0.0000   0.0000   0.2938
 -21.000  -0.5128   0.22053   0.21612   0.0253  1.0001  0.0409  -1.0871   0.0000   0.0000   0.0000   0.2866
 -20.000  -0.4936   0.20996   0.20550   0.0202  1.0001  0.0456  -1.0679   0.0000   0.0000   0.0000   0.2791
 -19.000  -0.4813   0.19982   0.19534   0.0141  1.0001  0.0482  -1.1753   0.0000   0.0000   0.0000   0.2679
 -18.000  -0.4581   0.18908   0.18456   0.0102  1.0001  0.0548  -1.1252   0.0000   0.0000   0.0000   0.2616
 -17.000  -0.4452   0.17885   0.17432   0.0048  1.0001  0.0586  -1.1939   0.0000   0.0000   0.0000   0.2505
 -16.000  -0.4276   0.16926   0.16470   0.0006  1.0001  0.0661  -1.1755   0.0000   0.0000   0.0000   0.2415
 -15.000  -0.4138   0.15888   0.15432  -0.0035  1.0001  0.0710  -1.2297   0.0000   0.0000   0.0000   0.2321
 -14.000  -0.4422   0.15578   0.15123  -0.0102  1.0001  0.0796  -1.4882   0.0000   0.0000   0.0000   0.2175
 -13.000  -0.5879   0.15634   0.15152   0.0013  1.0001  0.0802  -1.9460   0.0000   0.0000   0.0000   0.2407
 -12.000  -0.5466   0.14064   0.13579   0.0005  1.0001  0.0907  -1.7676   0.0000   0.0000   0.0000   0.2401
 -11.000  -0.5296   0.12460   0.11982  -0.0045  1.0001  0.0985  -1.7682   0.0000   0.0000   0.0000   0.2316
 -10.000  -0.5252   0.10840   0.10372  -0.0113  1.0001  0.1113  -1.8619   0.0000   0.0000   0.0000   0.2197
  -9.000  -0.6829   0.05755   0.05252  -0.0471  1.0001  0.0559  -3.6197   0.0000   0.0000   0.0000   0.1727
  -8.000  -0.7045   0.04065   0.03422  -0.0407  1.0001  0.0561  -3.8547   0.0000   0.0000   0.0000   0.1847
  -7.000  -0.6577   0.02949   0.02177  -0.0331  1.0001  0.0615  -3.6450   0.0000   0.0000   0.0000   0.1928
  -6.000  -0.5780   0.02305   0.01438  -0.0270  1.0001  0.0807  -3.1830   0.0000   0.0000   0.0000   0.1968
  -5.000  -0.4891   0.01900   0.01038  -0.0227  1.0001  0.1284  -2.6392   0.0000   0.0000   0.0000   0.1978
  -4.000  -0.3949   0.01641   0.00814  -0.0198  1.0001  0.2288  -2.0303   0.0000   0.0000   0.0000   0.1946
  -3.000  -0.2959   0.01464   0.00727  -0.0182  1.0001  0.4201  -1.4614   0.0000   0.0000   0.0000   0.1833
  -2.000  -0.2041   0.01367   0.00764  -0.0140  1.0001  0.7218  -0.9973   0.0000   0.0000   0.0000   0.1767
  -1.000  -0.0269   0.01445   0.00856  -0.0245  0.9829  0.9999  -0.5989   0.0000   0.0000   0.0000  -0.6793
   0.000   0.1939   0.01427   0.00801  -0.0467  0.9427  0.9999  -0.5360   0.0000   0.0000   0.0000   0.4899
   1.000   0.3532   0.01309   0.00674  -0.0535  0.8781  0.9999  -0.7185   0.0000   0.0000   0.0000   0.3992
   2.000   0.4572   0.01221   0.00566  -0.0479  0.7805  0.9999  -0.8992   0.0000   0.0000   0.0000   0.3517
   3.000   0.5530   0.01256   0.00547  -0.0417  0.6512  0.9999  -1.1105   0.0000   0.0000   0.0000   0.3214
   4.000   0.6480   0.01383   0.00610  -0.0367  0.5151  0.9999  -1.3705   0.0000   0.0000   0.0000   0.3018
   5.000   0.7434   0.01566   0.00736  -0.0326  0.3926  0.9999  -1.6909   0.0000   0.0000   0.0000   0.2882
   6.000   0.8385   0.01793   0.00929  -0.0291  0.2902  0.9999  -2.1044   0.0000   0.0000   0.0000   0.2780
   7.000   0.9318   0.02076   0.01192  -0.0256  0.2124  0.9999  -2.6407   0.0000   0.0000   0.0000   0.2696
   8.000   1.0221   0.02431   0.01551  -0.0217  0.1554  0.9999  -3.2654   0.0000   0.0000   0.0000   0.2623
   9.000   1.1057   0.02881   0.02028  -0.0172  0.1140  0.9999  -3.9335   0.0000   0.0000   0.0000   0.2554
  10.000   1.1772   0.03457   0.02644  -0.0117  0.0852  0.9999  -4.6104   0.0000   0.0000   0.0000   0.2484
  11.000   1.2173   0.04312   0.03591  -0.0038  0.0682  0.9999  -5.1079   0.0000   0.0000   0.0000   0.2403
  12.000   1.2102   0.05361   0.04716   0.0060  0.0599  0.9999  -5.4085   0.0000   0.0000   0.0000   0.2307
  13.000   1.1177   0.07283   0.06761   0.0061  0.0588  0.9999  -5.1241   0.0000   0.0000   0.0000   0.2285
  15.000   0.5940   0.16098   0.15656  -0.0332  0.1192  0.9999  -1.4146   0.0000   0.0000   0.0000   0.2942
  16.000   0.5998   0.17242   0.16805  -0.0374  0.1062  0.9999  -1.3758   0.0000   0.0000   0.0000   0.3000
  17.000   0.6150   0.18455   0.18026  -0.0410  0.0944  0.9999  -1.4013   0.0000   0.0000   0.0000   0.3034
  18.000   0.6402   0.19848   0.19425  -0.0439  0.0827  0.9999  -1.4711   0.0000   0.0000   0.0000   0.3042
  19.000   0.6308   0.20654   0.20236  -0.0515  0.0733  0.9999  -1.3115   0.0000   0.0000   0.0000   0.3166
  20.000   0.6391   0.21873   0.21459  -0.0573  0.0656  0.9999  -1.2339   0.0000   0.0000   0.0000   0.3237
  21.000   0.6650   0.23337   0.22929  -0.0601  0.0602  0.9999  -1.3347   0.0000   0.0000   0.0000   0.3230
  22.000   0.6685   0.24308   0.23906  -0.0670  0.0524  0.9999  -1.2349   0.0000   0.0000   0.0000   0.3317
  23.000   0.6799   0.25626   0.25229  -0.0725  0.0491  0.9999  -1.1733   0.0000   0.0000   0.0000   0.3370
  24.000   0.6979   0.26912   0.26524  -0.0767  0.0427  0.9999  -1.2442   0.0000   0.0000   0.0000   0.3385
  25.000   0.7049   0.28216   0.27832  -0.0833  0.0396  0.9999  -1.1341   0.0000   0.0000   0.0000   0.3456
  26.000   0.7203   0.29525   0.29150  -0.0877  0.0354  0.9999  -1.1926   0.0000   0.0000   0.0000   0.3473
  27.000   0.7285   0.30889   0.30520  -0.0940  0.0325  0.9999  -1.0878   0.0000   0.0000   0.0000   0.3530
  28.000   0.7411   0.32210   0.31850  -0.0988  0.0291  0.9999  -1.1518   0.0000   0.0000   0.0000   0.3552
  29.000   0.7491   0.33622   0.33268  -0.1047  0.0274  0.9999  -1.0779   0.0000   0.0000   0.0000   0.3598
  30.000   0.7588   0.34954   0.34608  -0.1099  0.0241  0.9999  -1.0829   0.0000   0.0000   0.0000   0.3626


