xflr5 v6.61

 Calculated polar for: SJ4_11_06

 1 1 Reynolds number fixed          Mach number fixed         

 xtrf =   1.000 (top)        1.000 (bottom)
 Mach =   0.200     Re =     0.075 e 6     Ncrit =   9.000

  alpha     CL        CD       CDp       Cm    Top Xtr Bot Xtr   Cpmin    Chinge    XCp    
 ------- -------- --------- --------- -------- ------- ------- -------- --------- ---------
 -28.000  -1.0509   0.34979   0.34356   0.1394  1.0001  0.0347  -1.8333   0.0000   0.0000   0.0000   0.3476
 -27.000  -1.0184   0.33925   0.33296   0.1284  1.0001  0.0381  -1.8089   0.0000   0.0000   0.0000   0.3434
 -26.000  -0.9862   0.32958   0.32327   0.1165  1.0001  0.0398  -1.8676   0.0000   0.0000   0.0000   0.3377
 -25.000  -0.9509   0.31583   0.30945   0.1080  1.0001  0.0430  -1.7597   0.0000   0.0000   0.0000   0.3352
 -24.000  -0.9171   0.30639   0.29997   0.0963  1.0001  0.0469  -1.7843   0.0000   0.0000   0.0000   0.3287
 -23.000  -0.8810   0.29201   0.28557   0.0876  1.0001  0.0494  -1.7156   0.0000   0.0000   0.0000   0.3249
 -22.000  -0.8448   0.28022   0.27375   0.0781  1.0001  0.0553  -1.6945   0.0000   0.0000   0.0000   0.3197
 -21.000  -0.8114   0.26849   0.26202   0.0676  1.0001  0.0580  -1.7325   0.0000   0.0000   0.0000   0.3122
 -20.000  -0.7722   0.25440   0.24790   0.0604  1.0001  0.0641  -1.6271   0.0000   0.0000   0.0000   0.3085
 -19.000  -0.7406   0.24268   0.23620   0.0500  1.0001  0.0690  -1.6680   0.0000   0.0000   0.0000   0.2993
 -18.000  -0.7023   0.22896   0.22247   0.0429  1.0001  0.0777  -1.6121   0.0000   0.0000   0.0000   0.2942
 -17.000  -0.6687   0.21496   0.20849   0.0351  1.0001  0.0829  -1.6080   0.0000   0.0000   0.0000   0.2867
 -16.000  -0.6517   0.20695   0.20054   0.0244  1.0001  0.0924  -1.6949   0.0000   0.0000   0.0000   0.2732
 -15.000  -0.6065   0.18856   0.18215   0.0206  1.0001  0.1041  -1.5721   0.0000   0.0000   0.0000   0.2706
 -14.000  -0.5760   0.17379   0.16741   0.0150  1.0001  0.1132  -1.5680   0.0000   0.0000   0.0000   0.2635
 -13.000  -0.5533   0.15973   0.15342   0.0090  1.0001  0.1258  -1.5847   0.0000   0.0000   0.0000   0.2547
 -12.000  -0.5327   0.14553   0.13928   0.0040  1.0001  0.1420  -1.5801   0.0000   0.0000   0.0000   0.2469
 -11.000  -0.5174   0.13095   0.12479  -0.0008  1.0001  0.1585  -1.6101   0.0000   0.0000   0.0000   0.2387
 -10.000  -0.5431   0.11801   0.11206  -0.0106  1.0001  0.1797  -1.8041   0.0000   0.0000   0.0000   0.2222
  -9.000  -0.5023   0.10099   0.09508  -0.0097  1.0001  0.2008  -1.7145   0.0000   0.0000   0.0000   0.2230
  -8.000  -0.6598   0.05561   0.04900  -0.0418  1.0001  0.0920  -3.1692   0.0000   0.0000   0.0000   0.1796
  -7.000  -0.6439   0.03921   0.03107  -0.0356  1.0001  0.0942  -3.2391   0.0000   0.0000   0.0000   0.1882
  -6.000  -0.5751   0.03003   0.02082  -0.0295  1.0001  0.1176  -2.9227   0.0000   0.0000   0.0000   0.1926
  -5.000  -0.4889   0.02396   0.01433  -0.0246  1.0001  0.1745  -2.4970   0.0000   0.0000   0.0000   0.1942
  -4.000  -0.3974   0.02009   0.01080  -0.0205  1.0001  0.2913  -1.9671   0.0000   0.0000   0.0000   0.1933
  -3.000  -0.3055   0.01743   0.00927  -0.0162  1.0001  0.5148  -1.4450   0.0000   0.0000   0.0000   0.1922
  -2.000  -0.2345   0.01653   0.00972  -0.0028  1.0001  0.8674  -1.0313   0.0000   0.0000   0.0000   0.2336
  -1.000  -0.1023   0.01696   0.00938  -0.0103  1.0001  0.9999  -0.6837   0.0000   0.0000   0.0000   0.1441
   0.000  -0.0088   0.01851   0.01044  -0.0124  0.9919  0.9999  -0.4866   0.0000   0.0000   0.0000  -1.1730
   1.000   0.2251   0.01988   0.01162  -0.0375  0.9240  0.9999  -0.6033   0.0000   0.0000   0.0000   0.4139
   2.000   0.4255   0.01863   0.01054  -0.0505  0.8423  0.9999  -0.8485   0.0000   0.0000   0.0000   0.3654
   3.000   0.5534   0.01725   0.00910  -0.0467  0.7329  0.9999  -1.0905   0.0000   0.0000   0.0000   0.3305
   4.000   0.6531   0.01786   0.00919  -0.0396  0.5960  0.9999  -1.3534   0.0000   0.0000   0.0000   0.3060
   5.000   0.7475   0.01987   0.01065  -0.0339  0.4613  0.9999  -1.6644   0.0000   0.0000   0.0000   0.2898
   6.000   0.8415   0.02278   0.01311  -0.0292  0.3488  0.9999  -2.0600   0.0000   0.0000   0.0000   0.2782
   7.000   0.9335   0.02662   0.01688  -0.0250  0.2609  0.9999  -2.5591   0.0000   0.0000   0.0000   0.2692
   8.000   1.0226   0.03160   0.02200  -0.0208  0.1965  0.9999  -3.1247   0.0000   0.0000   0.0000   0.2616
   9.000   1.1031   0.03835   0.02911  -0.0161  0.1501  0.9999  -3.7119   0.0000   0.0000   0.0000   0.2547
  10.000   1.1480   0.04807   0.03997  -0.0086  0.1204  0.9999  -4.1390   0.0000   0.0000   0.0000   0.2465
  11.000   1.1272   0.06176   0.05491   0.0011  0.1068  0.9999  -4.2346   0.0000   0.0000   0.0000   0.2368
  12.000   1.0089   0.08441   0.07839   0.0009  0.1079  0.9999  -3.8154   0.0000   0.0000   0.0000   0.2355
  13.000   0.5755   0.14516   0.13924  -0.0297  0.2209  0.9999  -1.3143   0.0000   0.0000   0.0000   0.2918
  14.000   0.6063   0.15926   0.15350  -0.0304  0.1934  0.9999  -1.4133   0.0000   0.0000   0.0000   0.2894
  15.000   0.5753   0.16503   0.15930  -0.0351  0.1740  0.9999  -1.2625   0.0000   0.0000   0.0000   0.2999
  16.000   0.5883   0.17579   0.17014  -0.0382  0.1531  0.9999  -1.2681   0.0000   0.0000   0.0000   0.3031
  18.000   0.6334   0.20370   0.19822  -0.0444  0.1218  0.9999  -1.3510   0.0000   0.0000   0.0000   0.3062
  19.000   0.6306   0.21075   0.20535  -0.0502  0.1094  0.9999  -1.2673   0.0000   0.0000   0.0000   0.3148
  20.000   0.6361   0.22093   0.21558  -0.0559  0.0984  0.9999  -1.1999   0.0000   0.0000   0.0000   0.3223
  21.000   0.6474   0.23288   0.22759  -0.0612  0.0900  0.9999  -1.1471   0.0000   0.0000   0.0000   0.3278
  22.000   0.6681   0.24723   0.24203  -0.0650  0.0823  0.9999  -1.2023   0.0000   0.0000   0.0000   0.3291
  23.000   0.6780   0.25780   0.25269  -0.0707  0.0730  0.9999  -1.1613   0.0000   0.0000   0.0000   0.3348
  24.000   0.6884   0.27042   0.26538  -0.0764  0.0677  0.9999  -1.1001   0.0000   0.0000   0.0000   0.3402
  25.000   0.7092   0.28579   0.28086  -0.0800  0.0608  0.9999  -1.1941   0.0000   0.0000   0.0000   0.3403
  26.000   0.7134   0.29644   0.29159  -0.0869  0.0559  0.9999  -1.0835   0.0000   0.0000   0.0000   0.3479
  27.000   0.7347   0.31416   0.30943  -0.0902  0.0508  0.9999  -1.1805   0.0000   0.0000   0.0000   0.3469
  28.000   0.7357   0.32335   0.31869  -0.0975  0.0476  0.9999  -1.0556   0.0000   0.0000   0.0000   0.3550
  29.000   0.7495   0.33810   0.33355  -0.1019  0.0426  0.9999  -1.1248   0.0000   0.0000   0.0000   0.3561
  30.000   0.7549   0.35073   0.34626  -0.1082  0.0405  0.9999  -1.0333   0.0000   0.0000   0.0000   0.3615


