xflr5 v6.61

 Calculated polar for: SJ4_11_06

 1 1 Reynolds number fixed          Mach number fixed         

 xtrf =   1.000 (top)        1.000 (bottom)
 Mach =   0.200     Re =     0.060 e 6     Ncrit =   9.000

  alpha     CL        CD       CDp       Cm    Top Xtr Bot Xtr   Cpmin    Chinge    XCp    
 ------- -------- --------- --------- -------- ------- ------- -------- --------- ---------
 -23.000  -0.8795   0.29232   0.28512   0.0874  1.0001  0.0619  -1.6738   0.0000   0.0000   0.0000   0.3248
 -22.000  -0.8482   0.28529   0.27808   0.0754  1.0001  0.0674  -1.7418   0.0000   0.0000   0.0000   0.3163
 -21.000  -0.8080   0.26777   0.26053   0.0685  1.0001  0.0715  -1.6494   0.0000   0.0000   0.0000   0.3136
 -20.000  -0.7790   0.26088   0.25365   0.0571  1.0001  0.0794  -1.6901   0.0000   0.0000   0.0000   0.3038
 -19.000  -0.7356   0.24230   0.23504   0.0514  1.0001  0.0860  -1.5777   0.0000   0.0000   0.0000   0.3017
 -17.000  -0.6686   0.21728   0.21005   0.0349  1.0001  0.1042  -1.5738   0.0000   0.0000   0.0000   0.2866
 -16.000  -0.6333   0.20295   0.19575   0.0284  1.0001  0.1146  -1.5220   0.0000   0.0000   0.0000   0.2804
 -15.000  -0.6040   0.18944   0.18228   0.0214  1.0001  0.1251  -1.5349   0.0000   0.0000   0.0000   0.2720
 -14.000  -0.5773   0.17592   0.16882   0.0152  1.0001  0.1390  -1.5478   0.0000   0.0000   0.0000   0.2639
 -13.000  -0.5502   0.16197   0.15493   0.0103  1.0001  0.1565  -1.5310   0.0000   0.0000   0.0000   0.2573
 -12.000  -0.5305   0.14817   0.14119   0.0055  1.0001  0.1751  -1.5302   0.0000   0.0000   0.0000   0.2499
 -11.000  -0.5216   0.13433   0.12748   0.0007  1.0001  0.1976  -1.5859   0.0000   0.0000   0.0000   0.2418
 -10.000  -0.5127   0.12067   0.11392  -0.0031  1.0001  0.2248  -1.6270   0.0000   0.0000   0.0000   0.2355
  -9.000  -0.5178   0.10712   0.10057  -0.0067  1.0001  0.2570  -1.6897   0.0000   0.0000   0.0000   0.2298
  -8.000  -0.6211   0.06479   0.05809  -0.0390  1.0001  0.1187  -2.7632   0.0000   0.0000   0.0000   0.1806
  -7.000  -0.6303   0.04588   0.03788  -0.0361  1.0001  0.1184  -2.9686   0.0000   0.0000   0.0000   0.1865
  -6.000  -0.5739   0.03395   0.02468  -0.0303  1.0001  0.1402  -2.7899   0.0000   0.0000   0.0000   0.1914
  -5.000  -0.4908   0.02673   0.01678  -0.0250  1.0001  0.2012  -2.4247   0.0000   0.0000   0.0000   0.1935
  -4.000  -0.4009   0.02220   0.01253  -0.0203  1.0001  0.3257  -1.9336   0.0000   0.0000   0.0000   0.1944
  -3.000  -0.3132   0.01912   0.01055  -0.0140  1.0001  0.5615  -1.4390   0.0000   0.0000   0.0000   0.2005
  -2.000  -0.2089   0.01868   0.01110  -0.0038  1.0001  0.9471  -0.9686   0.0000   0.0000   0.0000   0.2269
  -1.000  -0.0969   0.01834   0.00980  -0.0109  1.0001  0.9999  -0.6750   0.0000   0.0000   0.0000   0.1324
   0.000  -0.0323   0.01963   0.01059  -0.0076  1.0001  0.9999  -0.5078   0.0000   0.0000   0.0000   0.0132
   1.000   0.1307   0.02248   0.01317  -0.0231  0.9619  0.9999  -0.5282   0.0000   0.0000   0.0000   0.4231
   2.000   0.3660   0.02315   0.01402  -0.0458  0.8703  0.9999  -0.7804   0.0000   0.0000   0.0000   0.3716
   3.000   0.5405   0.02113   0.01225  -0.0497  0.7660  0.9999  -1.0584   0.0000   0.0000   0.0000   0.3381
   4.000   0.6529   0.02075   0.01165  -0.0425  0.6342  0.9999  -1.3348   0.0000   0.0000   0.0000   0.3105
   5.000   0.7491   0.02263   0.01302  -0.0355  0.4976  0.9999  -1.6436   0.0000   0.0000   0.0000   0.2920
   6.000   0.8428   0.02580   0.01580  -0.0300  0.3804  0.9999  -2.0281   0.0000   0.0000   0.0000   0.2792
   7.000   0.9335   0.03025   0.02022  -0.0252  0.2886  0.9999  -2.5041   0.0000   0.0000   0.0000   0.2695
   8.000   1.0186   0.03629   0.02653  -0.0204  0.2216  0.9999  -3.0252   0.0000   0.0000   0.0000   0.2615
   9.000   1.0802   0.04506   0.03622  -0.0140  0.1752  0.9999  -3.4760   0.0000   0.0000   0.0000   0.2534
  10.000   1.1000   0.05747   0.04972  -0.0062  0.1477  0.9999  -3.7399   0.0000   0.0000   0.0000   0.2449
  11.000   0.9547   0.08323   0.07655  -0.0044  0.1521  0.9999  -3.1792   0.0000   0.0000   0.0000   0.2429
  12.000   0.5568   0.13664   0.12985  -0.0311  0.2915  0.9999  -1.2231   0.0000   0.0000   0.0000   0.2967
  13.000   0.5566   0.14652   0.13988  -0.0316  0.2597  0.9999  -1.2214   0.0000   0.0000   0.0000   0.2971
  14.000   0.5599   0.15641   0.14987  -0.0334  0.2313  0.9999  -1.2182   0.0000   0.0000   0.0000   0.2994
  15.000   0.5753   0.16798   0.16156  -0.0356  0.2065  0.9999  -1.2396   0.0000   0.0000   0.0000   0.3010
  16.000   0.5833   0.17763   0.17130  -0.0389  0.1821  0.9999  -1.2269   0.0000   0.0000   0.0000   0.3049
  17.000   0.6083   0.19207   0.18585  -0.0416  0.1638  0.9999  -1.2746   0.0000   0.0000   0.0000   0.3058
  18.000   0.6099   0.20063   0.19447  -0.0465  0.1484  0.9999  -1.2127   0.0000   0.0000   0.0000   0.3128
  19.000   0.6197   0.21104   0.20496  -0.0512  0.1331  0.9999  -1.1788   0.0000   0.0000   0.0000   0.3182
  20.000   0.6367   0.22362   0.21763  -0.0553  0.1206  0.9999  -1.1898   0.0000   0.0000   0.0000   0.3214
  21.000   0.6608   0.23915   0.23325  -0.0589  0.1082  0.9999  -1.2260   0.0000   0.0000   0.0000   0.3224
  22.000   0.6638   0.24676   0.24096  -0.0650  0.0971  0.9999  -1.1624   0.0000   0.0000   0.0000   0.3299
  23.000   0.6733   0.25851   0.25278  -0.0707  0.0898  0.9999  -1.1108   0.0000   0.0000   0.0000   0.3358
  24.000   0.6927   0.27364   0.26802  -0.0747  0.0824  0.9999  -1.1384   0.0000   0.0000   0.0000   0.3371
  25.000   0.7008   0.28405   0.27853  -0.0807  0.0740  0.9999  -1.1001   0.0000   0.0000   0.0000   0.3429
  26.000   0.7133   0.29783   0.29240  -0.0858  0.0698  0.9999  -1.0898   0.0000   0.0000   0.0000   0.3464
  27.000   0.7255   0.31069   0.30539  -0.0909  0.0620  0.9999  -1.0815   0.0000   0.0000   0.0000   0.3497
  28.000   0.7350   0.32430   0.31909  -0.0965  0.0589  0.9999  -1.0556   0.0000   0.0000   0.0000   0.3538
  29.000   0.7450   0.33740   0.33231  -0.1019  0.0530  0.9999  -1.0538   0.0000   0.0000   0.0000   0.3572
  30.000   0.7545   0.35173   0.34673  -0.1070  0.0499  0.9999  -1.0454   0.0000   0.0000   0.0000   0.3602


