xflr5 v6.61

 Calculated polar for: SJ4_12_86

 1 1 Reynolds number fixed          Mach number fixed         

 xtrf =   1.000 (top)        1.000 (bottom)
 Mach =   0.200     Re =     0.090 e 6     Ncrit =   9.000

  alpha     CL        CD       CDp       Cm    Top Xtr Bot Xtr   Cpmin    Chinge    XCp    
 ------- -------- --------- --------- -------- ------- ------- -------- --------- ---------
 -30.000  -1.0795   0.36435   0.35861   0.1521  1.0001  0.0320  -1.8836   0.0000   0.0000   0.0000   0.3462
 -29.000  -1.0499   0.35656   0.35079   0.1388  1.0001  0.0339  -1.9676   0.0000   0.0000   0.0000   0.3402
 -28.000  -1.0170   0.34321   0.33737   0.1301  1.0001  0.0362  -1.8406   0.0000   0.0000   0.0000   0.3385
 -27.000  -0.9846   0.33340   0.32749   0.1182  1.0001  0.0392  -1.8642   0.0000   0.0000   0.0000   0.3331
 -26.000  -0.9504   0.32088   0.31494   0.1087  1.0001  0.0413  -1.7809   0.0000   0.0000   0.0000   0.3297
 -25.000  -0.9164   0.31038   0.30439   0.0976  1.0001  0.0455  -1.8008   0.0000   0.0000   0.0000   0.3240
 -24.000  -0.8808   0.29751   0.29150   0.0882  1.0001  0.0476  -1.7552   0.0000   0.0000   0.0000   0.3197
 -23.000  -0.8454   0.28625   0.28021   0.0780  1.0001  0.0526  -1.7288   0.0000   0.0000   0.0000   0.3137
 -22.000  -0.8087   0.27319   0.26714   0.0692  1.0001  0.0561  -1.6856   0.0000   0.0000   0.0000   0.3087
 -21.000  -0.7781   0.26411   0.25806   0.0573  1.0001  0.0617  -1.7615   0.0000   0.0000   0.0000   0.2987
 -20.000  -0.7359   0.24798   0.24191   0.0512  1.0001  0.0658  -1.6348   0.0000   0.0000   0.0000   0.2960
 -19.000  -0.7075   0.23690   0.23086   0.0400  1.0001  0.0723  -1.7106   0.0000   0.0000   0.0000   0.2846
 -18.000  -0.6659   0.22243   0.21636   0.0339  1.0001  0.0802  -1.6195   0.0000   0.0000   0.0000   0.2803
 -17.000  -0.6318   0.20858   0.20255   0.0263  1.0001  0.0863  -1.6028   0.0000   0.0000   0.0000   0.2722
 -16.000  -0.6083   0.19600   0.19002   0.0170  1.0001  0.0957  -1.6534   0.0000   0.0000   0.0000   0.2598
 -15.000  -0.5907   0.18499   0.17905   0.0086  1.0001  0.1068  -1.7193   0.0000   0.0000   0.0000   0.2478
 -14.000  -0.5543   0.16899   0.16307   0.0041  1.0001  0.1198  -1.6581   0.0000   0.0000   0.0000   0.2416
 -13.000  -0.5231   0.15347   0.14758  -0.0001  1.0001  0.1315  -1.6086   0.0000   0.0000   0.0000   0.2349
 -12.000  -0.5187   0.13955   0.13374  -0.0071  1.0001  0.1488  -1.7034   0.0000   0.0000   0.0000   0.2228
 -11.000  -0.5198   0.12405   0.11835  -0.0139  1.0001  0.1648  -1.8058   0.0000   0.0000   0.0000   0.2109
 -10.000  -0.6376   0.07199   0.06638  -0.0472  1.0001  0.0914  -3.0854   0.0000   0.0000   0.0000   0.1642
  -9.000  -0.7558   0.04978   0.04331  -0.0454  1.0001  0.0877  -3.6254   0.0000   0.0000   0.0000   0.1800
  -8.000  -0.7557   0.03739   0.02949  -0.0347  1.0001  0.0978  -3.5766   0.0000   0.0000   0.0000   0.1951
  -7.000  -0.6973   0.03007   0.02117  -0.0269  1.0001  0.1223  -3.2229   0.0000   0.0000   0.0000   0.2033
  -6.000  -0.6184   0.02547   0.01624  -0.0212  1.0001  0.1632  -2.7373   0.0000   0.0000   0.0000   0.2082
  -5.000  -0.5314   0.02210   0.01292  -0.0168  1.0001  0.2235  -2.2264   0.0000   0.0000   0.0000   0.2115
  -4.000  -0.4398   0.01983   0.01099  -0.0135  1.0001  0.3175  -1.7385   0.0000   0.0000   0.0000   0.2129
  -3.000  -0.3472   0.01839   0.01027  -0.0108  1.0001  0.4661  -1.3274   0.0000   0.0000   0.0000   0.2131
  -2.000  -0.2627   0.01781   0.01082  -0.0057  1.0001  0.6854  -1.0322   0.0000   0.0000   0.0000   0.2228
  -1.000  -0.0786   0.01955   0.01295  -0.0153  0.9740  0.9769  -0.6893   0.0000   0.0000   0.0000   0.0462
   0.000   0.1967   0.01939   0.01229  -0.0488  0.9269  0.9999  -0.6000   0.0000   0.0000   0.0000   0.4972
   1.000   0.3713   0.01766   0.01043  -0.0586  0.8567  0.9999  -0.7904   0.0000   0.0000   0.0000   0.4050
   2.000   0.4829   0.01619   0.00873  -0.0539  0.7660  0.9999  -0.9697   0.0000   0.0000   0.0000   0.3579
   3.000   0.5768   0.01622   0.00827  -0.0469  0.6554  0.9999  -1.1621   0.0000   0.0000   0.0000   0.3265
   4.000   0.6669   0.01734   0.00880  -0.0404  0.5448  0.9999  -1.3811   0.0000   0.0000   0.0000   0.3049
   5.000   0.7574   0.01914   0.01012  -0.0350  0.4448  0.9999  -1.6380   0.0000   0.0000   0.0000   0.2895
   6.000   0.8500   0.02148   0.01208  -0.0305  0.3600  0.9999  -1.9402   0.0000   0.0000   0.0000   0.2782
   7.000   0.9418   0.02442   0.01491  -0.0264  0.2900  0.9999  -2.2920   0.0000   0.0000   0.0000   0.2692
   8.000   1.0313   0.02800   0.01857  -0.0223  0.2342  0.9999  -2.7227   0.0000   0.0000   0.0000   0.2616
   9.000   1.1145   0.03263   0.02351  -0.0177  0.1909  0.9999  -3.2131   0.0000   0.0000   0.0000   0.2547
  10.000   1.1857   0.03831   0.02965  -0.0121  0.1575  0.9999  -3.7220   0.0000   0.0000   0.0000   0.2477
  11.000   1.2238   0.04626   0.03844  -0.0039  0.1335  0.9999  -4.1278   0.0000   0.0000   0.0000   0.2393
  12.000   1.1983   0.05675   0.04986   0.0076  0.1195  0.9999  -4.2952   0.0000   0.0000   0.0000   0.2282
  15.000   0.8124   0.18577   0.17995  -0.0517  0.1680  0.9999  -1.8938   0.0000   0.0000   0.0000   0.2963
  16.000   0.8068   0.19878   0.19293  -0.0630  0.1501  0.9999  -1.7688   0.0000   0.0000   0.0000   0.3092
  17.000   0.8326   0.21309   0.20728  -0.0711  0.1327  0.9999  -1.7844   0.0000   0.0000   0.0000   0.3149
  18.000   0.8629   0.22747   0.22171  -0.0792  0.1184  0.9999  -1.8037   0.0000   0.0000   0.0000   0.3197
  19.000   0.8944   0.24180   0.23607  -0.0879  0.1067  0.9999  -1.8325   0.0000   0.0000   0.0000   0.3244
  20.000   0.9284   0.25608   0.25040  -0.0965  0.0970  0.9999  -1.8598   0.0000   0.0000   0.0000   0.3281
  21.000   0.9706   0.27284   0.26723  -0.1024  0.0875  0.9999  -2.0003   0.0000   0.0000   0.0000   0.3279
  25.000   0.6755   0.27490   0.27024  -0.0748  0.0637  0.9999  -1.0852   0.0000   0.0000   0.0000   0.3369
  26.000   0.6978   0.29034   0.28578  -0.0783  0.0579  0.9999  -1.1861   0.0000   0.0000   0.0000   0.3364
  27.000   0.7002   0.30044   0.29597  -0.0854  0.0525  0.9999  -1.0721   0.0000   0.0000   0.0000   0.3447
  28.000   0.7118   0.31383   0.30944  -0.0906  0.0490  0.9999  -1.0597   0.0000   0.0000   0.0000   0.3481
  29.000   0.7224   0.32665   0.32237  -0.0960  0.0440  0.9999  -1.0657   0.0000   0.0000   0.0000   0.3517
  30.000   0.7309   0.34023   0.33603  -0.1017  0.0409  0.9999  -1.0301   0.0000   0.0000   0.0000   0.3559


