xflr5 v6.61

 Calculated polar for: SJ4_8_70

 1 1 Reynolds number fixed          Mach number fixed         

 xtrf =   1.000 (top)        1.000 (bottom)
 Mach =   0.200     Re =     0.075 e 6     Ncrit =   9.000

  alpha     CL        CD       CDp       Cm    Top Xtr Bot Xtr   Cpmin    Chinge    XCp    
 ------- -------- --------- --------- -------- ------- ------- -------- --------- ---------
 -20.000  -0.8215   0.26144   0.25512   0.0734  1.0001  0.0475  -1.6434   0.0000   0.0000   0.0000   0.3240
 -19.000  -0.7868   0.25014   0.24382   0.0635  1.0001  0.0531  -1.6428   0.0000   0.0000   0.0000   0.3166
 -18.000  -0.7536   0.23659   0.23031   0.0544  1.0001  0.0556  -1.6657   0.0000   0.0000   0.0000   0.3094
 -17.000  -0.7154   0.22163   0.21531   0.0482  1.0001  0.0624  -1.5923   0.0000   0.0000   0.0000   0.3057
 -16.000  -0.7084   0.21947   0.21326   0.0346  1.0001  0.0668  -1.8288   0.0000   0.0000   0.0000   0.2885
 -15.000  -0.6532   0.19513   0.18888   0.0326  1.0001  0.0780  -1.6040   0.0000   0.0000   0.0000   0.2903
 -14.000  -0.6235   0.18018   0.17396   0.0264  1.0001  0.0843  -1.5757   0.0000   0.0000   0.0000   0.2836
 -13.000  -0.6243   0.17196   0.16587   0.0152  1.0001  0.0934  -1.7353   0.0000   0.0000   0.0000   0.2667
 -12.000  -0.5867   0.15357   0.14750   0.0126  1.0001  0.1063  -1.6537   0.0000   0.0000   0.0000   0.2644
 -11.000  -0.5750   0.13944   0.13346   0.0062  1.0001  0.1207  -1.7164   0.0000   0.0000   0.0000   0.2545
 -10.000  -0.5664   0.12415   0.11833   0.0001  1.0001  0.1362  -1.7747   0.0000   0.0000   0.0000   0.2447
  -9.000  -0.5335   0.10783   0.10206  -0.0005  1.0001  0.1558  -1.6770   0.0000   0.0000   0.0000   0.2441
  -8.000  -0.5523   0.09375   0.08829  -0.0102  1.0001  0.1793  -1.8141   0.0000   0.0000   0.0000   0.2276
  -7.000  -0.5270   0.07885   0.07350  -0.0103  1.0001  0.2144  -1.7115   0.0000   0.0000   0.0000   0.2270
  -6.000  -0.5214   0.04360   0.03663  -0.0369  1.0001  0.0887  -2.6358   0.0000   0.0000   0.0000   0.1755
  -5.000  -0.4447   0.02891   0.01981  -0.0336  1.0001  0.0860  -2.7002   0.0000   0.0000   0.0000   0.1707
  -4.000  -0.3470   0.02131   0.01140  -0.0293  1.0001  0.1268  -2.3445   0.0000   0.0000   0.0000   0.1618
  -3.000  -0.2538   0.01552   0.00754  -0.0249  1.0001  0.4738  -1.8520   0.0000   0.0000   0.0000   0.1481
  -2.000  -0.1221   0.01394   0.00670  -0.0232  1.0001  0.9999  -1.0867   0.0000   0.0000   0.0000   0.0551
  -1.000  -0.0490   0.01407   0.00603  -0.0182  1.0001  0.9999  -0.6435   0.0000   0.0000   0.0000  -0.1265
   0.000   0.0380   0.01490   0.00639  -0.0160  1.0001  0.9999  -0.3707   0.0000   0.0000   0.0000   0.6696
   1.000   0.1234   0.01660   0.00792  -0.0154  1.0001  0.9999  -0.4460   0.0000   0.0000   0.0000   0.3717
   2.000   0.3604   0.01794   0.00955  -0.0413  0.9249  0.9999  -0.7136   0.0000   0.0000   0.0000   0.3621
   3.000   0.5407   0.01627   0.00838  -0.0477  0.8116  0.9999  -1.0598   0.0000   0.0000   0.0000   0.3353
   4.000   0.6433   0.01622   0.00805  -0.0387  0.6288  0.9999  -1.4389   0.0000   0.0000   0.0000   0.3066
   5.000   0.7346   0.01868   0.00963  -0.0316  0.4200  0.9999  -1.9700   0.0000   0.0000   0.0000   0.2886
   6.000   0.8249   0.02274   0.01306  -0.0265  0.2523  0.9999  -2.6361   0.0000   0.0000   0.0000   0.2768
   7.000   0.9158   0.02856   0.01873  -0.0222  0.1483  0.9999  -3.3399   0.0000   0.0000   0.0000   0.2679
   8.000   0.9986   0.03800   0.02913  -0.0172  0.0987  0.9999  -3.9201   0.0000   0.0000   0.0000   0.2600
   9.000   1.0376   0.05237   0.04524  -0.0103  0.0822  0.9999  -4.1347   0.0000   0.0000   0.0000   0.2519
  10.000   1.0099   0.07039   0.06438  -0.0048  0.0779  0.9999  -4.0848   0.0000   0.0000   0.0000   0.2458
  11.000   0.8497   0.11427   0.10867  -0.0326  0.1026  0.9999  -2.7474   0.0000   0.0000   0.0000   0.2792
  13.000   0.6106   0.14934   0.14384  -0.0372  0.1702  0.9999  -1.4628   0.0000   0.0000   0.0000   0.3030
  14.000   0.6083   0.15975   0.15429  -0.0402  0.1505  0.9999  -1.3906   0.0000   0.0000   0.0000   0.3075
  15.000   0.6406   0.17596   0.17059  -0.0414  0.1316  0.9999  -1.4997   0.0000   0.0000   0.0000   0.3052
  16.000   0.6423   0.18652   0.18117  -0.0456  0.1179  0.9999  -1.4405   0.0000   0.0000   0.0000   0.3109
  17.000   0.6510   0.19800   0.19272  -0.0499  0.1045  0.9999  -1.3943   0.0000   0.0000   0.0000   0.3156
  18.000   0.6514   0.20611   0.20087  -0.0556  0.0932  0.9999  -1.3053   0.0000   0.0000   0.0000   0.3234
  19.000   0.6582   0.21698   0.21177  -0.0612  0.0834  0.9999  -1.2447   0.0000   0.0000   0.0000   0.3302
  20.000   0.6730   0.22986   0.22470  -0.0658  0.0768  0.9999  -1.2317   0.0000   0.0000   0.0000   0.3338
  21.000   0.6898   0.24265   0.23759  -0.0701  0.0677  0.9999  -1.2354   0.0000   0.0000   0.0000   0.3365
  22.000   0.6986   0.25451   0.24949  -0.0761  0.0622  0.9999  -1.1435   0.0000   0.0000   0.0000   0.3426
  23.000   0.7211   0.27090   0.26598  -0.0793  0.0549  0.9999  -1.2644   0.0000   0.0000   0.0000   0.3421
  24.000   0.7253   0.28096   0.27610  -0.0862  0.0522  0.9999  -1.1423   0.0000   0.0000   0.0000   0.3497
  25.000   0.7381   0.29408   0.28931  -0.0913  0.0462  0.9999  -1.1292   0.0000   0.0000   0.0000   0.3530
  26.000   0.7525   0.30999   0.30529  -0.0957  0.0431  0.9999  -1.1421   0.0000   0.0000   0.0000   0.3547
  27.000   0.7602   0.32161   0.31702  -0.1020  0.0392  0.9999  -1.0504   0.0000   0.0000   0.0000   0.3601
  28.000   0.7715   0.33561   0.33113  -0.1069  0.0353  0.9999  -1.0945   0.0000   0.0000   0.0000   0.3625
  29.000   0.7830   0.35247   0.34806  -0.1114  0.0336  0.9999  -1.1342   0.0000   0.0000   0.0000   0.3641
  30.000   0.7884   0.36384   0.35955  -0.1178  0.0308  0.9999  -1.0401   0.0000   0.0000   0.0000   0.3693


