xflr5 v6.61

 Calculated polar for: SJ4_8_70

 1 1 Reynolds number fixed          Mach number fixed         

 xtrf =   1.000 (top)        1.000 (bottom)
 Mach =   0.200     Re =     0.100 e 6     Ncrit =   9.000

  alpha     CL        CD       CDp       Cm    Top Xtr Bot Xtr   Cpmin    Chinge    XCp    
 ------- -------- --------- --------- -------- ------- ------- -------- --------- ---------
 -18.000  -0.4987   0.19544   0.19052   0.0206  1.0001  0.0478  -1.0915   0.0000   0.0000   0.0000   0.2839
 -17.000  -0.4875   0.18742   0.18247   0.0147  1.0001  0.0535  -1.1937   0.0000   0.0000   0.0000   0.2732
 -16.000  -0.4674   0.17510   0.17014   0.0110  1.0001  0.0571  -1.1823   0.0000   0.0000   0.0000   0.2670
 -15.000  -0.4583   0.16734   0.16236   0.0060  1.0001  0.0659  -1.2325   0.0000   0.0000   0.0000   0.2570
 -14.000  -0.4410   0.15552   0.15055   0.0030  1.0001  0.0704  -1.2035   0.0000   0.0000   0.0000   0.2510
 -13.000  -0.4496   0.14963   0.14466  -0.0014  1.0001  0.0792  -1.3410   0.0000   0.0000   0.0000   0.2415
 -12.000  -0.4285   0.13585   0.13088  -0.0031  1.0001  0.0863  -1.3209   0.0000   0.0000   0.0000   0.2376
 -11.000  -0.4290   0.12332   0.11842  -0.0073  1.0001  0.0966  -1.4164   0.0000   0.0000   0.0000   0.2282
 -10.000  -0.4284   0.10924   0.10443  -0.0109  1.0001  0.1102  -1.4738   0.0000   0.0000   0.0000   0.2202
  -9.000  -0.4320   0.09375   0.08905  -0.0149  1.0001  0.1240  -1.5374   0.0000   0.0000   0.0000   0.2118
  -8.000  -0.4348   0.07765   0.07308  -0.0178  1.0001  0.1399  -1.5640   0.0000   0.0000   0.0000   0.2059
  -6.000  -0.5234   0.03796   0.03115  -0.0370  1.0001  0.0641  -2.9020   0.0000   0.0000   0.0000   0.1752
  -5.000  -0.4423   0.02620   0.01729  -0.0323  1.0001  0.0669  -2.8584   0.0000   0.0000   0.0000   0.1729
  -4.000  -0.3459   0.01901   0.00973  -0.0284  1.0001  0.0979  -2.4268   0.0000   0.0000   0.0000   0.1642
  -3.000  -0.2489   0.01405   0.00641  -0.0257  1.0001  0.3996  -1.8739   0.0000   0.0000   0.0000   0.1431
  -2.000  -0.1252   0.01235   0.00615  -0.0228  1.0001  0.9999  -1.1062   0.0000   0.0000   0.0000   0.0633
  -1.000  -0.0496   0.01254   0.00562  -0.0182  1.0001  0.9999  -0.6492   0.0000   0.0000   0.0000  -0.1218
   0.000   0.0396   0.01347   0.00614  -0.0166  1.0001  0.9999  -0.3698   0.0000   0.0000   0.0000   0.6672
   1.000   0.2162   0.01475   0.00730  -0.0319  0.9645  0.9999  -0.5169   0.0000   0.0000   0.0000   0.3957
   2.000   0.4200   0.01411   0.00694  -0.0476  0.8901  0.9999  -0.7859   0.0000   0.0000   0.0000   0.3610
   3.000   0.5428   0.01308   0.00599  -0.0436  0.7658  0.9999  -1.0783   0.0000   0.0000   0.0000   0.3275
   4.000   0.6401   0.01399   0.00630  -0.0365  0.5740  0.9999  -1.4516   0.0000   0.0000   0.0000   0.3034
   5.000   0.7330   0.01644   0.00789  -0.0313  0.3750  0.9999  -1.9998   0.0000   0.0000   0.0000   0.2882
   6.000   0.8247   0.01998   0.01082  -0.0273  0.2184  0.9999  -2.7007   0.0000   0.0000   0.0000   0.2776
   7.000   0.9155   0.02492   0.01563  -0.0233  0.1226  0.9999  -3.4570   0.0000   0.0000   0.0000   0.2690
   8.000   1.0040   0.03268   0.02381  -0.0191  0.0771  0.9999  -4.1676   0.0000   0.0000   0.0000   0.2616
   9.000   1.0591   0.04488   0.03780  -0.0123  0.0609  0.9999  -4.5385   0.0000   0.0000   0.0000   0.2532
  10.000   1.0260   0.06306   0.05769  -0.0041  0.0599  0.9999  -4.3679   0.0000   0.0000   0.0000   0.2449
  11.000   0.9214   0.08978   0.08504  -0.0152  0.0640  0.9999  -3.7631   0.0000   0.0000   0.0000   0.2563
  12.000   0.8247   0.14610   0.14118  -0.0494  0.1309  0.9999  -2.1660   0.0000   0.0000   0.0000   0.3004
  13.000   0.8375   0.16509   0.16015  -0.0551  0.1178  0.9999  -2.1656   0.0000   0.0000   0.0000   0.3054
  14.000   0.8386   0.18171   0.17669  -0.0655  0.1034  0.9999  -2.0401   0.0000   0.0000   0.0000   0.3166
  15.000   0.8714   0.20009   0.19512  -0.0701  0.0912  0.9999  -2.1084   0.0000   0.0000   0.0000   0.3178
  16.000   0.9041   0.21835   0.21338  -0.0757  0.0787  0.9999  -2.1793   0.0000   0.0000   0.0000   0.3198
  17.000   0.9081   0.22778   0.22273  -0.0916  0.0698  0.9999  -1.9488   0.0000   0.0000   0.0000   0.3355
  18.000   0.9398   0.24372   0.23865  -0.1000  0.0646  0.9999  -1.9655   0.0000   0.0000   0.0000   0.3397
  19.000   0.9766   0.25887   0.25387  -0.1071  0.0555  0.9999  -2.0627   0.0000   0.0000   0.0000   0.3413
  20.000   1.0049   0.27219   0.26715  -0.1197  0.0506  0.9999  -1.9168   0.0000   0.0000   0.0000   0.3492
  21.000   1.0418   0.28708   0.28210  -0.1270  0.0446  0.9999  -2.0508   0.0000   0.0000   0.0000   0.3502
  22.000   1.0739   0.30119   0.29622  -0.1382  0.0424  0.9999  -2.0173   0.0000   0.0000   0.0000   0.3552
  23.000   1.1080   0.31369   0.30876  -0.1491  0.0363  0.9999  -2.0282   0.0000   0.0000   0.0000   0.3591
  24.000   1.1447   0.33433   0.32945  -0.1552  0.0337  0.9999  -2.2031   0.0000   0.0000   0.0000   0.3580
  25.000   1.1750   0.34044   0.33560  -0.1704  0.0310  0.9999  -2.0030   0.0000   0.0000   0.0000   0.3652
  26.000   1.2076   0.35300   0.34821  -0.1808  0.0276  0.9999  -2.0323   0.0000   0.0000   0.0000   0.3676
  27.000   1.2406   0.37506   0.37035  -0.1870  0.0256  0.9999  -2.2807   0.0000   0.0000   0.0000   0.3662
  28.000   1.2699   0.37788   0.37321  -0.2031  0.0237  0.9999  -2.1101   0.0000   0.0000   0.0000   0.3727
  29.000   1.2997   0.38949   0.38489  -0.2143  0.0212  0.9999  -2.1468   0.0000   0.0000   0.0000   0.3750
  30.000   1.3267   0.40205   0.39754  -0.2240  0.0195  0.9999  -2.2794   0.0000   0.0000   0.0000   0.3760


