xflr5 v6.61

 Calculated polar for: SJ4_7_00

 1 1 Reynolds number fixed          Mach number fixed         

 xtrf =   1.000 (top)        1.000 (bottom)
 Mach =   0.200     Re =     0.070 e 6     Ncrit =   9.000

  alpha     CL        CD       CDp       Cm    Top Xtr Bot Xtr   Cpmin    Chinge    XCp    
 ------- -------- --------- --------- -------- ------- ------- -------- --------- ---------
 -28.000  -1.1247   0.36305   0.35703   0.1606  1.0001  0.0223  -1.8303   0.0000   0.0000   0.0000   0.3665
 -27.000  -1.0941   0.35142   0.34532   0.1504  1.0001  0.0241  -1.7889   0.0000   0.0000   0.0000   0.3633
 -26.000  -1.0620   0.34003   0.33387   0.1400  1.0001  0.0262  -1.7728   0.0000   0.0000   0.0000   0.3597
 -25.000  -1.0282   0.32897   0.32271   0.1293  1.0001  0.0285  -1.7739   0.0000   0.0000   0.0000   0.3555
 -24.000  -0.9951   0.32402   0.31774   0.1166  1.0001  0.0298  -1.8448   0.0000   0.0000   0.0000   0.3488
 -23.000  -0.9603   0.30648   0.30020   0.1080  1.0001  0.0310  -1.7718   0.0000   0.0000   0.0000   0.3456
 -22.000  -0.9248   0.29151   0.28513   0.1001  1.0001  0.0344  -1.6228   0.0000   0.0000   0.0000   0.3429
 -21.000  -0.8889   0.27909   0.27268   0.0907  1.0001  0.0381  -1.6031   0.0000   0.0000   0.0000   0.3381
 -20.000  -0.8565   0.27272   0.26632   0.0787  1.0001  0.0409  -1.7337   0.0000   0.0000   0.0000   0.3293
 -19.000  -0.8185   0.25382   0.24744   0.0718  1.0001  0.0430  -1.6866   0.0000   0.0000   0.0000   0.3263
 -18.000  -0.7817   0.23949   0.23304   0.0646  1.0001  0.0482  -1.6150   0.0000   0.0000   0.0000   0.3223
 -17.000  -0.7525   0.23098   0.22457   0.0537  1.0001  0.0531  -1.7003   0.0000   0.0000   0.0000   0.3122
 -16.000  -0.7138   0.21244   0.20605   0.0487  1.0001  0.0584  -1.5692   0.0000   0.0000   0.0000   0.3098
 -15.000  -0.6894   0.20273   0.19636   0.0389  1.0001  0.0659  -1.6143   0.0000   0.0000   0.0000   0.2992
 -14.000  -0.6526   0.18468   0.17834   0.0346  1.0001  0.0721  -1.5204   0.0000   0.0000   0.0000   0.2964
 -13.000  -0.6464   0.17676   0.17053   0.0239  1.0001  0.0796  -1.7103   0.0000   0.0000   0.0000   0.2813
 -12.000  -0.6067   0.15724   0.15103   0.0217  1.0001  0.0912  -1.6184   0.0000   0.0000   0.0000   0.2806
 -11.000  -0.5841   0.14199   0.13582   0.0170  1.0001  0.1018  -1.6175   0.0000   0.0000   0.0000   0.2746
 -10.000  -0.5713   0.12811   0.12208   0.0111  1.0001  0.1183  -1.6484   0.0000   0.0000   0.0000   0.2655
  -9.000  -0.5797   0.11611   0.11031   0.0008  1.0001  0.1344  -1.7875   0.0000   0.0000   0.0000   0.2483
  -8.000  -0.5478   0.09922   0.09353   0.0008  1.0001  0.1599  -1.6449   0.0000   0.0000   0.0000   0.2486
  -6.000  -0.5110   0.06932   0.06394  -0.0110  1.0001  0.2379  -1.6432   0.0000   0.0000   0.0000   0.2267
  -5.000  -0.4248   0.03960   0.03203  -0.0374  1.0001  0.0911  -2.3806   0.0000   0.0000   0.0000   0.1597
  -4.000  -0.3253   0.02620   0.01653  -0.0354  1.0001  0.0831  -2.3953   0.0000   0.0000   0.0000   0.1388
  -3.000  -0.2211   0.01893   0.00873  -0.0312  1.0001  0.1313  -2.0300   0.0000   0.0000   0.0000   0.1061
  -2.000  -0.1095   0.01302   0.00552  -0.0266  1.0001  0.9999  -1.4638   0.0000   0.0000   0.0000   0.0041
  -1.000  -0.0187   0.01311   0.00456  -0.0233  1.0001  0.9999  -0.7742   0.0000   0.0000   0.0000  -1.0069
   0.000   0.0761   0.01361   0.00453  -0.0213  1.0001  0.9999  -0.3168   0.0000   0.0000   0.0000   0.5289
   1.000   0.1699   0.01465   0.00541  -0.0201  1.0001  0.9999  -0.4264   0.0000   0.0000   0.0000   0.3670
   2.000   0.2573   0.01666   0.00759  -0.0204  1.0001  0.9999  -0.5620   0.0000   0.0000   0.0000   0.3270
   3.000   0.5198   0.01687   0.00883  -0.0479  0.8810  0.9999  -1.0687   0.0000   0.0000   0.0000   0.3398
   4.000   0.6414   0.01582   0.00795  -0.0393  0.6602  0.9999  -1.7276   0.0000   0.0000   0.0000   0.3084
   5.000   0.7240   0.01923   0.00996  -0.0297  0.3376  0.9999  -2.5223   0.0000   0.0000   0.0000   0.2873
   6.000   0.8130   0.02625   0.01612  -0.0244  0.1359  0.9999  -3.2614   0.0000   0.0000   0.0000   0.2754
   7.000   0.9051   0.03717   0.02812  -0.0197  0.0832  0.9999  -3.8205   0.0000   0.0000   0.0000   0.2664
   8.000   0.9532   0.05418   0.04716  -0.0143  0.0739  0.9999  -3.9196   0.0000   0.0000   0.0000   0.2591
   9.000   0.9050   0.07847   0.07297  -0.0156  0.0840  0.9999  -3.3699   0.0000   0.0000   0.0000   0.2609
  10.000   0.6805   0.11473   0.10937  -0.0347  0.2109  0.9999  -1.8287   0.0000   0.0000   0.0000   0.2958
  11.000   0.6470   0.13009   0.12462  -0.0395  0.1885  0.9999  -1.6616   0.0000   0.0000   0.0000   0.3052
  12.000   0.6574   0.14603   0.14058  -0.0407  0.1692  0.9999  -1.6544   0.0000   0.0000   0.0000   0.3055
  13.000   0.6321   0.15420   0.14872  -0.0438  0.1472  0.9999  -1.5079   0.0000   0.0000   0.0000   0.3124
  14.000   0.6677   0.17232   0.16690  -0.0444  0.1290  0.9999  -1.5662   0.0000   0.0000   0.0000   0.3089
  15.000   0.6592   0.18111   0.17571  -0.0486  0.1153  0.9999  -1.4666   0.0000   0.0000   0.0000   0.3155
  16.000   0.6630   0.19166   0.18627  -0.0529  0.1019  0.9999  -1.4338   0.0000   0.0000   0.0000   0.3207
  17.000   0.6743   0.20319   0.19786  -0.0570  0.0897  0.9999  -1.4235   0.0000   0.0000   0.0000   0.3246
  18.000   0.6714   0.21110   0.20576  -0.0637  0.0819  0.9999  -1.2733   0.0000   0.0000   0.0000   0.3341
  19.000   0.6860   0.22386   0.21859  -0.0681  0.0741  0.9999  -1.2437   0.0000   0.0000   0.0000   0.3374


