xflr5 v6.61

 Calculated polar for: SJ4_8_70

 1 1 Reynolds number fixed          Mach number fixed         

 xtrf =   1.000 (top)        1.000 (bottom)
 Mach =   0.200     Re =     0.070 e 6     Ncrit =   9.000

  alpha     CL        CD       CDp       Cm    Top Xtr Bot Xtr   Cpmin    Chinge    XCp    
 ------- -------- --------- --------- -------- ------- ------- -------- --------- ---------
 -18.000  -0.7498   0.23522   0.22869   0.0561  1.0001  0.0607  -1.5781   0.0000   0.0000   0.0000   0.3121
 -17.000  -0.7270   0.22875   0.22225   0.0442  1.0001  0.0666  -1.7223   0.0000   0.0000   0.0000   0.2994
 -16.000  -0.6822   0.20833   0.20183   0.0405  1.0001  0.0746  -1.5797   0.0000   0.0000   0.0000   0.2988
 -15.000  -0.6597   0.19676   0.19035   0.0310  1.0001  0.0812  -1.6623   0.0000   0.0000   0.0000   0.2874
 -14.000  -0.6290   0.18266   0.17624   0.0251  1.0001  0.0924  -1.6058   0.0000   0.0000   0.0000   0.2812
 -13.000  -0.5971   0.16656   0.16018   0.0206  1.0001  0.1016  -1.5361   0.0000   0.0000   0.0000   0.2765
 -12.000  -0.5757   0.15225   0.14595   0.0150  1.0001  0.1140  -1.5740   0.0000   0.0000   0.0000   0.2689
 -11.000  -0.5589   0.13818   0.13195   0.0098  1.0001  0.1314  -1.6061   0.0000   0.0000   0.0000   0.2611
 -10.000  -0.5579   0.12493   0.11886   0.0025  1.0001  0.1488  -1.7022   0.0000   0.0000   0.0000   0.2489
  -9.000  -0.5357   0.10872   0.10277  -0.0002  1.0001  0.1679  -1.6694   0.0000   0.0000   0.0000   0.2448
  -8.000  -0.5376   0.09452   0.08881  -0.0059  1.0001  0.1948  -1.7178   0.0000   0.0000   0.0000   0.2349
  -7.000  -0.5420   0.08044   0.07493  -0.0124  1.0001  0.2371  -1.7418   0.0000   0.0000   0.0000   0.2240
  -6.000  -0.5228   0.04399   0.03655  -0.0371  1.0001  0.0924  -2.6794   0.0000   0.0000   0.0000   0.1752
  -5.000  -0.4446   0.02995   0.02052  -0.0336  1.0001  0.0924  -2.6839   0.0000   0.0000   0.0000   0.1705
  -4.000  -0.3470   0.02200   0.01179  -0.0295  1.0001  0.1356  -2.3321   0.0000   0.0000   0.0000   0.1614
  -3.000  -0.2552   0.01592   0.00786  -0.0247  1.0001  0.4928  -1.8461   0.0000   0.0000   0.0000   0.1498
  -2.000  -0.1215   0.01436   0.00685  -0.0233  1.0001  0.9999  -1.0821   0.0000   0.0000   0.0000   0.0533
   0.000   0.0377   0.01528   0.00647  -0.0159  1.0001  0.9999  -0.3709   0.0000   0.0000   0.0000   0.6703
   1.000   0.1229   0.01694   0.00795  -0.0151  1.0001  0.9999  -0.4458   0.0000   0.0000   0.0000   0.3702
   2.000   0.3355   0.01889   0.01014  -0.0378  0.9349  0.9999  -0.6862   0.0000   0.0000   0.0000   0.3600
   3.000   0.5356   0.01735   0.00923  -0.0484  0.8203  0.9999  -1.0471   0.0000   0.0000   0.0000   0.3375
   4.000   0.6441   0.01689   0.00859  -0.0395  0.6422  0.9999  -1.4347   0.0000   0.0000   0.0000   0.3078
   5.000   0.7354   0.01932   0.01013  -0.0318  0.4322  0.9999  -1.9630   0.0000   0.0000   0.0000   0.2888
   6.000   0.8254   0.02350   0.01366  -0.0264  0.2617  0.9999  -2.6210   0.0000   0.0000   0.0000   0.2767
   7.000   0.9159   0.02963   0.01974  -0.0220  0.1554  0.9999  -3.3050   0.0000   0.0000   0.0000   0.2677
   8.000   0.9992   0.03919   0.02998  -0.0173  0.1040  0.9999  -3.9060   0.0000   0.0000   0.0000   0.2600
   9.000   1.0294   0.05458   0.04742  -0.0100  0.0883  0.9999  -4.0252   0.0000   0.0000   0.0000   0.2517
  10.000   0.9715   0.07476   0.06886  -0.0054  0.0895  0.9999  -3.7452   0.0000   0.0000   0.0000   0.2469
  11.000   0.6702   0.11420   0.10849  -0.0240  0.1385  0.9999  -2.0089   0.0000   0.0000   0.0000   0.2782
  12.000   0.6484   0.14186   0.13619  -0.0340  0.2016  0.9999  -1.6276   0.0000   0.0000   0.0000   0.2950
  13.000   0.6047   0.14960   0.14389  -0.0379  0.1818  0.9999  -1.4281   0.0000   0.0000   0.0000   0.3048
  14.000   0.6339   0.16509   0.15949  -0.0388  0.1593  0.9999  -1.4888   0.0000   0.0000   0.0000   0.3025
  15.000   0.6127   0.17147   0.16587  -0.0439  0.1417  0.9999  -1.3502   0.0000   0.0000   0.0000   0.3124
  16.000   0.6206   0.18248   0.17692  -0.0479  0.1265  0.9999  -1.3145   0.0000   0.0000   0.0000   0.3172
  17.000   0.6317   0.19374   0.18822  -0.0521  0.1113  0.9999  -1.2772   0.0000   0.0000   0.0000   0.3217
  18.000   0.6445   0.20566   0.20021  -0.0565  0.1010  0.9999  -1.2406   0.0000   0.0000   0.0000   0.3259
  19.000   0.6639   0.21946   0.21407  -0.0601  0.0907  0.9999  -1.2833   0.0000   0.0000   0.0000   0.3278
  20.000   0.6825   0.23282   0.22752  -0.0641  0.0793  0.9999  -1.3126   0.0000   0.0000   0.0000   0.3299
  21.000   0.6844   0.24196   0.23670  -0.0709  0.0734  0.9999  -1.1715   0.0000   0.0000   0.0000   0.3387
  22.000   0.7091   0.25957   0.25439  -0.0739  0.0661  0.9999  -1.2468   0.0000   0.0000   0.0000   0.3379
  23.000   0.7117   0.26756   0.26244  -0.0810  0.0595  0.9999  -1.1445   0.0000   0.0000   0.0000   0.3461
  24.000   0.7358   0.28695   0.28193  -0.0839  0.0544  0.9999  -1.2588   0.0000   0.0000   0.0000   0.3449
  25.000   0.7370   0.29438   0.28943  -0.0913  0.0508  0.9999  -1.1074   0.0000   0.0000   0.0000   0.3532
  26.000   0.7511   0.30847   0.30363  -0.0958  0.0447  0.9999  -1.1284   0.0000   0.0000   0.0000   0.3552
  27.000   0.7612   0.32283   0.31808  -0.1012  0.0427  0.9999  -1.0809   0.0000   0.0000   0.0000   0.3588
  28.000   0.7701   0.33569   0.33103  -0.1070  0.0386  0.9999  -1.0554   0.0000   0.0000   0.0000   0.3630
  29.000   0.7808   0.35001   0.34547  -0.1118  0.0349  0.9999  -1.0963   0.0000   0.0000   0.0000   0.3651
  30.000   0.7896   0.36566   0.36122  -0.1168  0.0334  0.9999  -1.0924   0.0000   0.0000   0.0000   0.3677


