xflr5 v6.61

 Calculated polar for: SJ4_7_00

 1 1 Reynolds number fixed          Mach number fixed         

 xtrf =   1.000 (top)        1.000 (bottom)
 Mach =   0.200     Re =     0.025 e 6     Ncrit =   9.000

  alpha     CL        CD       CDp       Cm    Top Xtr Bot Xtr   Cpmin    Chinge    XCp    
 ------- -------- --------- --------- -------- ------- ------- -------- --------- ---------
 -22.000  -0.9279   0.29815   0.28768   0.0964  1.0001  0.1186  -1.5972   0.0000   0.0000   0.0000   0.3389
 -21.000  -0.8920   0.28420   0.27370   0.0880  1.0001  0.1279  -1.5823   0.0000   0.0000   0.0000   0.3350
 -20.000  -0.8579   0.27235   0.26186   0.0792  1.0001  0.1386  -1.5777   0.0000   0.0000   0.0000   0.3300
 -19.000  -0.8239   0.26026   0.24972   0.0710  1.0001  0.1515  -1.5625   0.0000   0.0000   0.0000   0.3250
 -18.000  -0.7879   0.24642   0.23589   0.0638  1.0001  0.1689  -1.5200   0.0000   0.0000   0.0000   0.3209
 -17.000  -0.7581   0.23606   0.22558   0.0563  1.0001  0.1892  -1.4949   0.0000   0.0000   0.0000   0.3153
 -16.000  -0.7214   0.22032   0.20990   0.0505  1.0001  0.2105  -1.4245   0.0000   0.0000   0.0000   0.3119
 -15.000  -0.6948   0.20893   0.19854   0.0445  1.0001  0.2343  -1.4431   0.0000   0.0000   0.0000   0.3067
 -14.000  -0.6612   0.19378   0.18344   0.0401  1.0001  0.2646  -1.4332   0.0000   0.0000   0.0000   0.3041
 -13.000  -0.6404   0.18236   0.17213   0.0366  1.0001  0.3029  -1.4407   0.0000   0.0000   0.0000   0.3013
 -12.000  -0.6029   0.16527   0.15507   0.0349  1.0001  0.3544  -1.3935   0.0000   0.0000   0.0000   0.3024
 -11.000  -0.5759   0.15092   0.14083   0.0342  1.0001  0.4128  -1.3587   0.0000   0.0000   0.0000   0.3044
 -10.000  -0.5530   0.13724   0.12728   0.0355  1.0001  0.4873  -1.3145   0.0000   0.0000   0.0000   0.3097
  -9.000  -0.4986   0.11892   0.10896   0.0379  1.0001  0.6097  -1.2825   0.0000   0.0000   0.0000   0.3215
  -8.000  -0.4317   0.10057   0.09060   0.0387  1.0001  0.7707  -1.2626   0.0000   0.0000   0.0000   0.3350
  -6.000  -0.5199   0.07555   0.06643  -0.0064  1.0001  0.2914  -1.8424   0.0000   0.0000   0.0000   0.2359
  -5.000  -0.4566   0.05396   0.04389  -0.0272  1.0001  0.2232  -2.0839   0.0000   0.0000   0.0000   0.1887
  -4.000  -0.3549   0.03821   0.02634  -0.0330  1.0001  0.2400  -2.0619   0.0000   0.0000   0.0000   0.1551
  -3.000  -0.1801   0.02233   0.01207  -0.0302  1.0001  0.9999  -1.9003   0.0000   0.0000   0.0000   0.0789
  -2.000  -0.1090   0.02124   0.00817  -0.0264  1.0001  0.9999  -1.3427   0.0000   0.0000   0.0000   0.0041
  -1.000  -0.0221   0.02115   0.00654  -0.0229  1.0001  0.9999  -0.7412   0.0000   0.0000   0.0000  -0.7954
   0.000   0.0669   0.02152   0.00609  -0.0200  1.0001  0.9999  -0.3139   0.0000   0.0000   0.0000   0.5482
   1.000   0.1554   0.02242   0.00670  -0.0177  1.0001  0.9999  -0.4149   0.0000   0.0000   0.0000   0.3624
   2.000   0.2403   0.02405   0.00850  -0.0163  1.0001  0.9999  -0.5450   0.0000   0.0000   0.0000   0.3157
   3.000   0.3158   0.02703   0.01204  -0.0165  1.0001  0.9999  -0.7062   0.0000   0.0000   0.0000   0.2995
   4.000   0.3732   0.03273   0.01856  -0.0203  1.0001  0.9999  -0.8932   0.0000   0.0000   0.0000   0.3007
   5.000   0.7323   0.03756   0.02688  -0.0510  0.6277  0.9999  -2.0936   0.0000   0.0000   0.0000   0.3164
   6.000   0.8189   0.04452   0.03367  -0.0299  0.3594  0.9999  -2.6921   0.0000   0.0000   0.0000   0.2827
   7.000   0.8741   0.06079   0.05083  -0.0252  0.2647  0.9999  -2.8739   0.0000   0.0000   0.0000   0.2744
   8.000   0.8559   0.08537   0.07614  -0.0340  0.2688  0.9999  -2.5971   0.0000   0.0000   0.0000   0.2850
   9.000   0.7923   0.11221   0.10257  -0.0551  0.3291  0.9999  -2.1347   0.0000   0.0000   0.0000   0.3142
  10.000   0.7133   0.13397   0.12387  -0.0830  0.6135  0.9999  -1.6532   0.0000   0.0000   0.0000   0.3597
  11.000   0.7470   0.15151   0.14160  -0.0835  0.5387  0.9999  -1.6559   0.0000   0.0000   0.0000   0.3545
  12.000   0.7762   0.16799   0.15813  -0.0841  0.4713  0.9999  -1.6914   0.0000   0.0000   0.0000   0.3503
  13.000   0.8175   0.18694   0.17715  -0.0856  0.4072  0.9999  -1.7374   0.0000   0.0000   0.0000   0.3460


