xflr5 v6.61

 Calculated polar for: SJ4_8_00

 1 1 Reynolds number fixed          Mach number fixed         

 xtrf =   1.000 (top)        1.000 (bottom)
 Mach =   0.200     Re =     0.100 e 6     Ncrit =   9.000

  alpha     CL        CD       CDp       Cm    Top Xtr Bot Xtr   Cpmin    Chinge    XCp    
 ------- -------- --------- --------- -------- ------- ------- -------- --------- ---------
 -21.000  -0.5633   0.22976   0.22501   0.0381  1.0001  0.0330  -1.0659   0.0000   0.0000   0.0000   0.3087
 -20.000  -0.5446   0.21864   0.21381   0.0331  1.0001  0.0366  -1.0640   0.0000   0.0000   0.0000   0.3027
 -19.000  -0.5303   0.20988   0.20501   0.0271  1.0001  0.0405  -1.1375   0.0000   0.0000   0.0000   0.2936
 -18.000  -0.5175   0.19973   0.19486   0.0215  1.0001  0.0420  -1.1979   0.0000   0.0000   0.0000   0.2847
 -17.000  -0.4913   0.18660   0.18169   0.0186  1.0001  0.0484  -1.0602   0.0000   0.0000   0.0000   0.2816
 -16.000  -0.4886   0.18126   0.17632   0.0120  1.0001  0.0532  -1.2432   0.0000   0.0000   0.0000   0.2688
 -15.000  -0.4619   0.16646   0.16151   0.0095  1.0001  0.0570  -1.1996   0.0000   0.0000   0.0000   0.2652
 -14.000  -0.4516   0.15768   0.15272   0.0053  1.0001  0.0647  -1.2479   0.0000   0.0000   0.0000   0.2568
 -13.000  -0.4504   0.14861   0.14367   0.0017  1.0001  0.0686  -1.3325   0.0000   0.0000   0.0000   0.2490
 -12.000  -0.4471   0.13898   0.13404  -0.0020  1.0001  0.0787  -1.3657   0.0000   0.0000   0.0000   0.2411
 -11.000  -0.4318   0.12520   0.12030  -0.0042  1.0001  0.0898  -1.3127   0.0000   0.0000   0.0000   0.2363
 -10.000  -0.4272   0.11102   0.10619  -0.0074  1.0001  0.0996  -1.3628   0.0000   0.0000   0.0000   0.2290
  -9.000  -0.4286   0.09584   0.09113  -0.0113  1.0001  0.1119  -1.4594   0.0000   0.0000   0.0000   0.2205
  -7.000  -0.5418   0.07372   0.06903  -0.0243  1.0001  0.1364  -1.9844   0.0000   0.0000   0.0000   0.2023
  -5.000  -0.4324   0.02942   0.02152  -0.0352  1.0001  0.0636  -2.7667   0.0000   0.0000   0.0000   0.1652
  -4.000  -0.3343   0.02055   0.01129  -0.0311  1.0001  0.0749  -2.4386   0.0000   0.0000   0.0000   0.1537
  -3.000  -0.2341   0.01446   0.00624  -0.0281  1.0001  0.2697  -2.0599   0.0000   0.0000   0.0000   0.1266
  -2.000  -0.1200   0.01175   0.00555  -0.0242  1.0001  0.9999  -1.2359   0.0000   0.0000   0.0000   0.0441
  -1.000  -0.0344   0.01195   0.00495  -0.0207  1.0001  0.9999  -0.6864   0.0000   0.0000   0.0000  -0.3575
   0.000   0.0585   0.01271   0.00529  -0.0191  1.0001  0.9999  -0.3439   0.0000   0.0000   0.0000   0.5757
   1.000   0.1900   0.01412   0.00657  -0.0262  0.9850  0.9999  -0.4759   0.0000   0.0000   0.0000   0.3861
   2.000   0.4115   0.01396   0.00674  -0.0467  0.9121  0.9999  -0.7545   0.0000   0.0000   0.0000   0.3613
   3.000   0.5434   0.01284   0.00583  -0.0445  0.7853  0.9999  -1.1091   0.0000   0.0000   0.0000   0.3291
   4.000   0.6405   0.01372   0.00611  -0.0368  0.5752  0.9999  -1.5278   0.0000   0.0000   0.0000   0.3041
   5.000   0.7323   0.01639   0.00785  -0.0314  0.3505  0.9999  -2.1826   0.0000   0.0000   0.0000   0.2887
   6.000   0.8221   0.02050   0.01126  -0.0272  0.1744  0.9999  -2.9671   0.0000   0.0000   0.0000   0.2779
   7.000   0.9135   0.02643   0.01711  -0.0232  0.0911  0.9999  -3.7647   0.0000   0.0000   0.0000   0.2693
   8.000   0.9987   0.03709   0.02879  -0.0185  0.0627  0.9999  -4.3650   0.0000   0.0000   0.0000   0.2615
   9.000   1.0366   0.05124   0.04486  -0.0114  0.0537  0.9999  -4.6075   0.0000   0.0000   0.0000   0.2532
  10.000   0.9521   0.07364   0.06880  -0.0079  0.0581  0.9999  -4.0083   0.0000   0.0000   0.0000   0.2498
  11.000   0.8847   0.10388   0.09919  -0.0261  0.0632  0.9999  -3.4573   0.0000   0.0000   0.0000   0.2702
  12.000   0.6421   0.13673   0.13205  -0.0358  0.1338  0.9999  -1.6681   0.0000   0.0000   0.0000   0.2985
  13.000   0.6263   0.14820   0.14352  -0.0387  0.1207  0.9999  -1.5668   0.0000   0.0000   0.0000   0.3041
  14.000   0.6310   0.15965   0.15503  -0.0413  0.1046  0.9999  -1.5530   0.0000   0.0000   0.0000   0.3070
  15.000   0.6278   0.17084   0.16622  -0.0464  0.0941  0.9999  -1.4307   0.0000   0.0000   0.0000   0.3148
  16.000   0.6351   0.18237   0.17777  -0.0509  0.0826  0.9999  -1.3533   0.0000   0.0000   0.0000   0.3203
  17.000   0.6499   0.19509   0.19052  -0.0546  0.0748  0.9999  -1.3561   0.0000   0.0000   0.0000   0.3233
  18.000   0.6657   0.20709   0.20261  -0.0586  0.0649  0.9999  -1.3904   0.0000   0.0000   0.0000   0.3263
  19.000   0.6703   0.21836   0.21388  -0.0650  0.0590  0.9999  -1.2637   0.0000   0.0000   0.0000   0.3345
  20.000   0.7038   0.23788   0.23347  -0.0666  0.0515  0.9999  -1.4275   0.0000   0.0000   0.0000   0.3307
  21.000   0.6975   0.24354   0.23915  -0.0749  0.0481  0.9999  -1.1741   0.0000   0.0000   0.0000   0.3426
  22.000   0.7127   0.25634   0.25205  -0.0795  0.0422  0.9999  -1.1966   0.0000   0.0000   0.0000   0.3454
  23.000   0.7294   0.27232   0.26808  -0.0836  0.0397  0.9999  -1.2513   0.0000   0.0000   0.0000   0.3471
  24.000   0.7371   0.28295   0.27877  -0.0903  0.0349  0.9999  -1.1487   0.0000   0.0000   0.0000   0.3536
  25.000   0.7509   0.29653   0.29243  -0.0949  0.0312  0.9999  -1.1813   0.0000   0.0000   0.0000   0.3559
  26.000   0.7674   0.31512   0.31111  -0.0987  0.0295  0.9999  -1.2234   0.0000   0.0000   0.0000   0.3564
  27.000   0.7721   0.32465   0.32070  -0.1057  0.0279  0.9999  -1.0478   0.0000   0.0000   0.0000   0.3631
  28.000   0.7822   0.33852   0.33466  -0.1111  0.0244  0.9999  -1.0365   0.0000   0.0000   0.0000   0.3662
  29.000   0.7925   0.35295   0.34918  -0.1157  0.0217  0.9999  -1.1247   0.0000   0.0000   0.0000   0.3681
  30.000   0.8026   0.37072   0.36704  -0.1202  0.0208  0.9999  -1.1698   0.0000   0.0000   0.0000   0.3696


