xflr5 v6.61

 Calculated polar for: SJ4_8_00

 1 1 Reynolds number fixed          Mach number fixed         

 xtrf =   1.000 (top)        1.000 (bottom)
 Mach =   0.200     Re =     0.075 e 6     Ncrit =   9.000

  alpha     CL        CD       CDp       Cm    Top Xtr Bot Xtr   Cpmin    Chinge    XCp    
 ------- -------- --------- --------- -------- ------- ------- -------- --------- ---------
 -30.000  -1.1667   0.40314   0.39744   0.1722  1.0001  0.0210  -2.0576   0.0000   0.0000   0.0000   0.3648
 -29.000  -1.1366   0.37111   0.36528   0.1661  1.0001  0.0223  -1.8680   0.0000   0.0000   0.0000   0.3656
 -28.000  -1.1068   0.35987   0.35393   0.1558  1.0001  0.0240  -1.8239   0.0000   0.0000   0.0000   0.3625
 -27.000  -1.0754   0.34878   0.34278   0.1452  1.0001  0.0260  -1.8035   0.0000   0.0000   0.0000   0.3589
 -26.000  -1.0424   0.33782   0.33176   0.1344  1.0001  0.0283  -1.7986   0.0000   0.0000   0.0000   0.3549
 -25.000  -1.0095   0.33270   0.32657   0.1215  1.0001  0.0298  -1.8662   0.0000   0.0000   0.0000   0.3484
 -24.000  -0.9757   0.31724   0.31112   0.1119  1.0001  0.0308  -1.8232   0.0000   0.0000   0.0000   0.3444
 -23.000  -0.9401   0.30124   0.29505   0.1044  1.0001  0.0338  -1.6557   0.0000   0.0000   0.0000   0.3424
 -22.000  -0.9045   0.28886   0.28260   0.0949  1.0001  0.0373  -1.6462   0.0000   0.0000   0.0000   0.3379
 -21.000  -0.8700   0.28005   0.27378   0.0835  1.0001  0.0406  -1.7374   0.0000   0.0000   0.0000   0.3304
 -20.000  -0.8384   0.26961   0.26340   0.0727  1.0001  0.0417  -1.8181   0.0000   0.0000   0.0000   0.3227
 -19.000  -0.7968   0.24994   0.24367   0.0678  1.0001  0.0462  -1.6362   0.0000   0.0000   0.0000   0.3221
 -18.000  -0.7632   0.23901   0.23272   0.0578  1.0001  0.0526  -1.6534   0.0000   0.0000   0.0000   0.3140
 -17.000  -0.7284   0.22370   0.21744   0.0504  1.0001  0.0560  -1.6005   0.0000   0.0000   0.0000   0.3085
 -16.000  -0.6938   0.20999   0.20374   0.0433  1.0001  0.0636  -1.5433   0.0000   0.0000   0.0000   0.3028
 -15.000  -0.6698   0.19795   0.19179   0.0339  1.0001  0.0677  -1.6644   0.0000   0.0000   0.0000   0.2919
 -14.000  -0.6346   0.18241   0.17621   0.0291  1.0001  0.0774  -1.5983   0.0000   0.0000   0.0000   0.2879
 -13.000  -0.6086   0.16763   0.16150   0.0230  1.0001  0.0840  -1.6047   0.0000   0.0000   0.0000   0.2807
 -12.000  -0.5952   0.15446   0.14844   0.0155  1.0001  0.0949  -1.6672   0.0000   0.0000   0.0000   0.2697
 -11.000  -0.5779   0.13986   0.13394   0.0099  1.0001  0.1086  -1.6591   0.0000   0.0000   0.0000   0.2616
 -10.000  -0.5590   0.12458   0.11872   0.0055  1.0001  0.1232  -1.6205   0.0000   0.0000   0.0000   0.2549
  -9.000  -0.5399   0.10967   0.10392   0.0019  1.0001  0.1415  -1.6293   0.0000   0.0000   0.0000   0.2492
  -7.000  -0.5311   0.08049   0.07518  -0.0103  1.0001  0.1947  -1.7515   0.0000   0.0000   0.0000   0.2277
  -6.000  -0.5090   0.05124   0.04468  -0.0370  1.0001  0.1066  -2.4584   0.0000   0.0000   0.0000   0.1744
  -5.000  -0.4330   0.03243   0.02369  -0.0357  1.0001  0.0793  -2.6835   0.0000   0.0000   0.0000   0.1643
  -4.000  -0.3357   0.02276   0.01282  -0.0320  1.0001  0.0968  -2.3728   0.0000   0.0000   0.0000   0.1515
  -3.000  -0.2371   0.01589   0.00729  -0.0281  1.0001  0.3446  -2.0258   0.0000   0.0000   0.0000   0.1283
  -2.000  -0.1181   0.01333   0.00609  -0.0245  1.0001  0.9999  -1.2150   0.0000   0.0000   0.0000   0.0385
  -1.000  -0.0349   0.01347   0.00534  -0.0206  1.0001  0.9999  -0.6803   0.0000   0.0000   0.0000  -0.3442
   0.000   0.0559   0.01417   0.00556  -0.0185  1.0001  0.9999  -0.3457   0.0000   0.0000   0.0000   0.5794
   1.000   0.1452   0.01558   0.00682  -0.0177  1.0001  0.9999  -0.4423   0.0000   0.0000   0.0000   0.3694
   2.000   0.3362   0.01745   0.00895  -0.0366  0.9480  0.9999  -0.6684   0.0000   0.0000   0.0000   0.3565
   3.000   0.5391   0.01603   0.00819  -0.0482  0.8313  0.9999  -1.0847   0.0000   0.0000   0.0000   0.3368
   4.000   0.6439   0.01583   0.00776  -0.0389  0.6334  0.9999  -1.5133   0.0000   0.0000   0.0000   0.3071
   5.000   0.7334   0.01856   0.00955  -0.0314  0.3969  0.9999  -2.1432   0.0000   0.0000   0.0000   0.2887
   6.000   0.8211   0.02321   0.01339  -0.0261  0.2079  0.9999  -2.8825   0.0000   0.0000   0.0000   0.2767
   7.000   0.9143   0.03055   0.02062  -0.0221  0.1157  0.9999  -3.6192   0.0000   0.0000   0.0000   0.2681
   8.000   0.9903   0.04171   0.03339  -0.0164  0.0804  0.9999  -4.0862   0.0000   0.0000   0.0000   0.2597
   9.000   1.0090   0.05975   0.05317  -0.0101  0.0750  0.9999  -4.1368   0.0000   0.0000   0.0000   0.2525
  10.000   0.9561   0.07955   0.07392  -0.0076  0.0758  0.9999  -3.8672   0.0000   0.0000   0.0000   0.2497
  11.000   0.6725   0.12712   0.12178  -0.0323  0.1974  0.9999  -1.7692   0.0000   0.0000   0.0000   0.2915
  12.000   0.6290   0.14024   0.13480  -0.0382  0.1796  0.9999  -1.5419   0.0000   0.0000   0.0000   0.3036
  13.000   0.6500   0.15514   0.14977  -0.0382  0.1559  0.9999  -1.6180   0.0000   0.0000   0.0000   0.3011
  14.000   0.6258   0.16293   0.15755  -0.0423  0.1410  0.9999  -1.4676   0.0000   0.0000   0.0000   0.3094
  15.000   0.6236   0.17254   0.16721  -0.0466  0.1220  0.9999  -1.3838   0.0000   0.0000   0.0000   0.3159
  16.000   0.6323   0.18399   0.17868  -0.0508  0.1095  0.9999  -1.3201   0.0000   0.0000   0.0000   0.3207
  17.000   0.6434   0.19557   0.19029  -0.0551  0.0972  0.9999  -1.2710   0.0000   0.0000   0.0000   0.3252
  18.000   0.6584   0.20809   0.20285  -0.0591  0.0873  0.9999  -1.2880   0.0000   0.0000   0.0000   0.3284


