xflr5 v6.61

 Calculated polar for: SJ4_12_86

 1 1 Reynolds number fixed          Mach number fixed         

 xtrf =   1.000 (top)        1.000 (bottom)
 Mach =   0.200     Re =     0.070 e 6     Ncrit =   9.000

  alpha     CL        CD       CDp       Cm    Top Xtr Bot Xtr   Cpmin    Chinge    XCp    
 ------- -------- --------- --------- -------- ------- ------- -------- --------- ---------
 -30.000  -1.0788   0.36695   0.36047   0.1490  1.0001  0.0396  -1.9464   0.0000   0.0000   0.0000   0.3435
 -29.000  -1.0472   0.35371   0.34714   0.1399  1.0001  0.0424  -1.8428   0.0000   0.0000   0.0000   0.3417
 -28.000  -1.0159   0.34486   0.33823   0.1278  1.0001  0.0456  -1.8693   0.0000   0.0000   0.0000   0.3365
 -27.000  -0.9827   0.33227   0.32559   0.1181  1.0001  0.0480  -1.8001   0.0000   0.0000   0.0000   0.3333
 -26.000  -0.9492   0.32212   0.31537   0.1071  1.0001  0.0526  -1.7802   0.0000   0.0000   0.0000   0.3283
 -25.000  -0.9148   0.30991   0.30314   0.0971  1.0001  0.0550  -1.7654   0.0000   0.0000   0.0000   0.3237
 -24.000  -0.8792   0.29850   0.29168   0.0873  1.0001  0.0604  -1.7233   0.0000   0.0000   0.0000   0.3189
 -23.000  -0.8439   0.28620   0.27937   0.0776  1.0001  0.0642  -1.6885   0.0000   0.0000   0.0000   0.3134
 -22.000  -0.8089   0.27550   0.26864   0.0675  1.0001  0.0707  -1.6898   0.0000   0.0000   0.0000   0.3068
 -21.000  -0.7713   0.26161   0.25474   0.0592  1.0001  0.0747  -1.6463   0.0000   0.0000   0.0000   0.3017
 -20.000  -0.7501   0.25762   0.25079   0.0462  1.0001  0.0824  -1.7490   0.0000   0.0000   0.0000   0.2886
 -19.000  -0.6984   0.23641   0.22953   0.0423  1.0001  0.0898  -1.5823   0.0000   0.0000   0.0000   0.2885
 -18.000  -0.6662   0.22367   0.21682   0.0334  1.0001  0.0969  -1.6049   0.0000   0.0000   0.0000   0.2795
 -17.000  -0.6588   0.21973   0.21297   0.0215  1.0001  0.1073  -1.7370   0.0000   0.0000   0.0000   0.2640
 -16.000  -0.6027   0.19854   0.19173   0.0182  1.0001  0.1195  -1.5755   0.0000   0.0000   0.0000   0.2622
 -15.000  -0.5694   0.18421   0.17743   0.0124  1.0001  0.1325  -1.5566   0.0000   0.0000   0.0000   0.2549
 -14.000  -0.5404   0.17006   0.16332   0.0068  1.0001  0.1456  -1.5454   0.0000   0.0000   0.0000   0.2467
 -13.000  -0.5283   0.15765   0.15100   0.0004  1.0001  0.1640  -1.5879   0.0000   0.0000   0.0000   0.2361
 -12.000  -0.5333   0.14498   0.13844  -0.0069  1.0001  0.1809  -1.7081   0.0000   0.0000   0.0000   0.2240
 -11.000  -0.4836   0.12744   0.12089  -0.0068  1.0001  0.2036  -1.5934   0.0000   0.0000   0.0000   0.2232
 -10.000  -0.6033   0.08543   0.07915  -0.0406  1.0001  0.1210  -2.6825   0.0000   0.0000   0.0000   0.1714
  -9.000  -0.6773   0.06272   0.05628  -0.0453  1.0001  0.1165  -3.0444   0.0000   0.0000   0.0000   0.1735
  -8.000  -0.7360   0.04477   0.03679  -0.0362  1.0001  0.1202  -3.3194   0.0000   0.0000   0.0000   0.1921
  -7.000  -0.6879   0.03567   0.02695  -0.0284  1.0001  0.1447  -3.0340   0.0000   0.0000   0.0000   0.2008
  -6.000  -0.6171   0.02909   0.01967  -0.0221  1.0001  0.1866  -2.6428   0.0000   0.0000   0.0000   0.2069
  -5.000  -0.5327   0.02486   0.01528  -0.0172  1.0001  0.2516  -2.1780   0.0000   0.0000   0.0000   0.2110
  -4.000  -0.4434   0.02200   0.01271  -0.0131  1.0001  0.3518  -1.7168   0.0000   0.0000   0.0000   0.2142
  -3.000  -0.3527   0.02015   0.01162  -0.0091  1.0001  0.5097  -1.3203   0.0000   0.0000   0.0000   0.2184
  -2.000  -0.2768   0.01939   0.01198  -0.0004  1.0001  0.7436  -1.0400   0.0000   0.0000   0.0000   0.2433
  -1.000  -0.1248   0.02100   0.01359  -0.0072  1.0001  0.9999  -0.7351   0.0000   0.0000   0.0000   0.1862
   0.000   0.0591   0.02241   0.01436  -0.0273  0.9492  0.9999  -0.5022   0.0000   0.0000   0.0000   0.7129
   1.000   0.2931   0.02225   0.01403  -0.0500  0.8798  0.9999  -0.7182   0.0000   0.0000   0.0000   0.4177
   2.000   0.4614   0.02025   0.01201  -0.0553  0.7976  0.9999  -0.9367   0.0000   0.0000   0.0000   0.3660
   3.000   0.5729   0.01928   0.01075  -0.0494  0.6958  0.9999  -1.1449   0.0000   0.0000   0.0000   0.3315
   4.000   0.6659   0.02014   0.01114  -0.0422  0.5834  0.9999  -1.3638   0.0000   0.0000   0.0000   0.3078
   5.000   0.7583   0.02200   0.01255  -0.0362  0.4800  0.9999  -1.6189   0.0000   0.0000   0.0000   0.2912
   6.000   0.8517   0.02464   0.01479  -0.0313  0.3916  0.9999  -1.9160   0.0000   0.0000   0.0000   0.2792
   7.000   0.9411   0.02814   0.01832  -0.0266  0.3174  0.9999  -2.2512   0.0000   0.0000   0.0000   0.2697
   8.000   1.0304   0.03252   0.02271  -0.0224  0.2599  0.9999  -2.6657   0.0000   0.0000   0.0000   0.2620
   9.000   1.1103   0.03811   0.02865  -0.0175  0.2145  0.9999  -3.1238   0.0000   0.0000   0.0000   0.2548
  10.000   1.1612   0.04606   0.03745  -0.0103  0.1813  0.9999  -3.5170   0.0000   0.0000   0.0000   0.2466
  11.000   1.1389   0.05831   0.05091   0.0007  0.1619  0.9999  -3.6384   0.0000   0.0000   0.0000   0.2359
  12.000   1.0419   0.07716   0.07044   0.0058  0.1550  0.9999  -3.4449   0.0000   0.0000   0.0000   0.2294
  16.000   0.8021   0.20199   0.19533  -0.0639  0.1807  0.9999  -1.7127   0.0000   0.0000   0.0000   0.3110
  17.000   0.8275   0.21536   0.20876  -0.0717  0.1597  0.9999  -1.7286   0.0000   0.0000   0.0000   0.3164
  18.000   0.8617   0.22963   0.22309  -0.0788  0.1426  0.9999  -1.7801   0.0000   0.0000   0.0000   0.3194
  19.000   0.8955   0.24384   0.23736  -0.0866  0.1279  0.9999  -1.8310   0.0000   0.0000   0.0000   0.3229
  20.000   0.9266   0.25726   0.25082  -0.0959  0.1152  0.9999  -1.8376   0.0000   0.0000   0.0000   0.3278
  21.000   0.9580   0.27058   0.26417  -0.1058  0.1050  0.9999  -1.8466   0.0000   0.0000   0.0000   0.3329
  25.000   1.0932   0.32242   0.31623  -0.1456  0.0725  0.9999  -1.9403   0.0000   0.0000   0.0000   0.3465
  26.000   1.1322   0.34104   0.33495  -0.1522  0.0668  0.9999  -2.1062   0.0000   0.0000   0.0000   0.3454
  27.000   1.1586   0.34675   0.34071  -0.1666  0.0606  0.9999  -2.0239   0.0000   0.0000   0.0000   0.3519
  28.000   1.1900   0.35930   0.35332  -0.1771  0.0568  0.9999  -2.0533   0.0000   0.0000   0.0000   0.3541
  29.000   1.2204   0.37015   0.36426  -0.1884  0.0514  0.9999  -2.1026   0.0000   0.0000   0.0000   0.3566
  30.000   1.2491   0.38133   0.37551  -0.2001  0.0482  0.9999  -2.1115   0.0000   0.0000   0.0000   0.3593


