xflr5 v6.61

 Calculated polar for: SJ4_12_86

 1 1 Reynolds number fixed          Mach number fixed         

 xtrf =   1.000 (top)        1.000 (bottom)
 Mach =   0.200     Re =     0.075 e 6     Ncrit =   9.000

  alpha     CL        CD       CDp       Cm    Top Xtr Bot Xtr   Cpmin    Chinge    XCp    
 ------- -------- --------- --------- -------- ------- ------- -------- --------- ---------
 -30.000  -1.0783   0.36416   0.35788   0.1512  1.0001  0.0379  -1.8715   0.0000   0.0000   0.0000   0.3455
 -29.000  -1.0488   0.35661   0.35029   0.1381  1.0001  0.0396  -1.9397   0.0000   0.0000   0.0000   0.3398
 -28.000  -1.0158   0.34311   0.33671   0.1293  1.0001  0.0424  -1.8269   0.0000   0.0000   0.0000   0.3380
 -27.000  -0.9844   0.33503   0.32857   0.1168  1.0001  0.0458  -1.8670   0.0000   0.0000   0.0000   0.3318
 -26.000  -0.9492   0.32100   0.31449   0.1081  1.0001  0.0486  -1.7610   0.0000   0.0000   0.0000   0.3293
 -25.000  -0.9159   0.31139   0.30484   0.0966  1.0001  0.0530  -1.7938   0.0000   0.0000   0.0000   0.3230
 -24.000  -0.8796   0.29782   0.29124   0.0877  1.0001  0.0556  -1.7321   0.0000   0.0000   0.0000   0.3192
 -23.000  -0.8471   0.28909   0.28249   0.0761  1.0001  0.0616  -1.7493   0.0000   0.0000   0.0000   0.3114
 -22.000  -0.8075   0.27367   0.26704   0.0687  1.0001  0.0653  -1.6655   0.0000   0.0000   0.0000   0.3083
 -21.000  -0.7797   0.26670   0.26008   0.0563  1.0001  0.0714  -1.7538   0.0000   0.0000   0.0000   0.2974
 -20.000  -0.7347   0.24883   0.24218   0.0509  1.0001  0.0778  -1.6057   0.0000   0.0000   0.0000   0.2958
 -19.000  -0.7037   0.23698   0.23036   0.0407  1.0001  0.0838  -1.6500   0.0000   0.0000   0.0000   0.2859
 -18.000  -0.6686   0.22477   0.21814   0.0327  1.0001  0.0933  -1.6297   0.0000   0.0000   0.0000   0.2784
 -17.000  -0.6295   0.20991   0.20329   0.0266  1.0001  0.1020  -1.5599   0.0000   0.0000   0.0000   0.2729
 -16.000  -0.5998   0.19650   0.18993   0.0188  1.0001  0.1107  -1.5686   0.0000   0.0000   0.0000   0.2632
 -15.000  -0.5777   0.18391   0.17739   0.0108  1.0001  0.1226  -1.6220   0.0000   0.0000   0.0000   0.2519
 -14.000  -0.5615   0.17142   0.16497   0.0037  1.0001  0.1362  -1.6659   0.0000   0.0000   0.0000   0.2411
 -13.000  -0.5342   0.15619   0.14978  -0.0009  1.0001  0.1518  -1.6337   0.0000   0.0000   0.0000   0.2337
 -12.000  -0.5039   0.14091   0.13452  -0.0041  1.0001  0.1697  -1.6098   0.0000   0.0000   0.0000   0.2281
 -11.000  -0.4925   0.12701   0.12071  -0.0084  1.0001  0.1943  -1.6384   0.0000   0.0000   0.0000   0.2204
 -10.000  -0.6430   0.07699   0.07086  -0.0473  1.0001  0.1075  -2.9950   0.0000   0.0000   0.0000   0.1652
  -9.000  -0.7236   0.05704   0.05043  -0.0457  1.0001  0.1053  -3.3394   0.0000   0.0000   0.0000   0.1771
  -8.000  -0.7327   0.04360   0.03603  -0.0365  1.0001  0.1145  -3.3179   0.0000   0.0000   0.0000   0.1915
  -7.000  -0.6925   0.03368   0.02477  -0.0279  1.0001  0.1376  -3.1054   0.0000   0.0000   0.0000   0.2017
  -6.000  -0.6177   0.02801   0.01848  -0.0218  1.0001  0.1801  -2.6775   0.0000   0.0000   0.0000   0.2073
  -5.000  -0.5322   0.02407   0.01448  -0.0171  1.0001  0.2442  -2.1946   0.0000   0.0000   0.0000   0.2111
  -4.000  -0.4422   0.02137   0.01217  -0.0133  1.0001  0.3423  -1.7235   0.0000   0.0000   0.0000   0.2137
  -3.000  -0.3508   0.01963   0.01119  -0.0098  1.0001  0.4981  -1.3221   0.0000   0.0000   0.0000   0.2164
  -2.000  -0.2722   0.01891   0.01162  -0.0021  1.0001  0.7276  -1.0372   0.0000   0.0000   0.0000   0.2369
  -1.000  -0.1273   0.02061   0.01348  -0.0070  1.0001  0.9999  -0.7386   0.0000   0.0000   0.0000   0.1892
   0.000   0.1023   0.02170   0.01392  -0.0343  0.9423  0.9999  -0.5318   0.0000   0.0000   0.0000   0.5846
   1.000   0.3189   0.02094   0.01301  -0.0531  0.8723  0.9999  -0.7414   0.0000   0.0000   0.0000   0.4137
   2.000   0.4693   0.01899   0.01100  -0.0551  0.7886  0.9999  -0.9478   0.0000   0.0000   0.0000   0.3636
   3.000   0.5739   0.01834   0.01000  -0.0485  0.6838  0.9999  -1.1498   0.0000   0.0000   0.0000   0.3299
   4.000   0.6668   0.01926   0.01038  -0.0416  0.5728  0.9999  -1.3700   0.0000   0.0000   0.0000   0.3068
   5.000   0.7582   0.02114   0.01181  -0.0358  0.4699  0.9999  -1.6248   0.0000   0.0000   0.0000   0.2907
   6.000   0.8503   0.02370   0.01406  -0.0309  0.3816  0.9999  -1.9207   0.0000   0.0000   0.0000   0.2788
   7.000   0.9440   0.02695   0.01705  -0.0269  0.3101  0.9999  -2.2722   0.0000   0.0000   0.0000   0.2698
   8.000   1.0294   0.03119   0.02158  -0.0221  0.2518  0.9999  -2.6772   0.0000   0.0000   0.0000   0.2617
   9.000   1.1078   0.03667   0.02747  -0.0170  0.2075  0.9999  -3.1327   0.0000   0.0000   0.0000   0.2544
  10.000   1.1660   0.04384   0.03532  -0.0104  0.1740  0.9999  -3.5640   0.0000   0.0000   0.0000   0.2466
  11.000   1.1869   0.05347   0.04577  -0.0018  0.1510  0.9999  -3.8749   0.0000   0.0000   0.0000   0.2379
  12.000   1.1423   0.06633   0.05937   0.0082  0.1386  0.9999  -3.9416   0.0000   0.0000   0.0000   0.2277
  13.000   0.8203   0.13815   0.13165  -0.0292  0.1683  0.9999  -2.2014   0.0000   0.0000   0.0000   0.2702
  14.000   0.7897   0.17419   0.16774  -0.0478  0.2139  0.9999  -1.7952   0.0000   0.0000   0.0000   0.2948
  15.000   0.7730   0.18596   0.17947  -0.0577  0.1910  0.9999  -1.6689   0.0000   0.0000   0.0000   0.3074
  16.000   0.8137   0.20144   0.19506  -0.0618  0.1697  0.9999  -1.7865   0.0000   0.0000   0.0000   0.3072
  17.000   0.8483   0.21862   0.21230  -0.0679  0.1532  0.9999  -1.8534   0.0000   0.0000   0.0000   0.3098
  18.000   0.8659   0.23051   0.22420  -0.0779  0.1380  0.9999  -1.8094   0.0000   0.0000   0.0000   0.3179
  19.000   0.8957   0.24411   0.23784  -0.0867  0.1238  0.9999  -1.8322   0.0000   0.0000   0.0000   0.3230
  20.000   0.9316   0.25902   0.25281  -0.0945  0.1114  0.9999  -1.8814   0.0000   0.0000   0.0000   0.3258
  21.000   0.9772   0.27852   0.27240  -0.1002  0.0996  0.9999  -2.0273   0.0000   0.0000   0.0000   0.3251
  22.000   0.9957   0.28397   0.27786  -0.1142  0.0897  0.9999  -1.9215   0.0000   0.0000   0.0000   0.3350
  23.000   1.0268   0.29664   0.29055  -0.1253  0.0816  0.9999  -1.9063   0.0000   0.0000   0.0000   0.3401
  24.000   1.0635   0.31174   0.30572  -0.1336  0.0762  0.9999  -1.9894   0.0000   0.0000   0.0000   0.3414
  25.000   1.0973   0.32370   0.31776  -0.1436  0.0677  0.9999  -2.0294   0.0000   0.0000   0.0000   0.3442
  26.000   1.1267   0.33465   0.32874  -0.1564  0.0628  0.9999  -1.9904   0.0000   0.0000   0.0000   0.3496
  27.000   1.1632   0.35181   0.34598  -0.1637  0.0578  0.9999  -2.1376   0.0000   0.0000   0.0000   0.3488
  28.000   1.1904   0.35844   0.35267  -0.1780  0.0524  0.9999  -2.0470   0.0000   0.0000   0.0000   0.3547
  29.000   1.2213   0.37169   0.36599  -0.1878  0.0495  0.9999  -2.1359   0.0000   0.0000   0.0000   0.3560
  30.000   1.2499   0.38113   0.37552  -0.2002  0.0443  0.9999  -2.1353   0.0000   0.0000   0.0000   0.3593


