xflr5 v6.61

 Calculated polar for: SJ4_11_06

 1 1 Reynolds number fixed          Mach number fixed         

 xtrf =   1.000 (top)        1.000 (bottom)
 Mach =   0.200     Re =     0.090 e 6     Ncrit =   9.000

  alpha     CL        CD       CDp       Cm    Top Xtr Bot Xtr   Cpmin    Chinge    XCp    
 ------- -------- --------- --------- -------- ------- ------- -------- --------- ---------
 -30.000  -1.1129   0.37268   0.36711   0.1611  1.0001  0.0264  -1.9656   0.0000   0.0000   0.0000   0.3545
 -29.000  -1.0832   0.36092   0.35531   0.1506  1.0001  0.0274  -1.9169   0.0000   0.0000   0.0000   0.3514
 -28.000  -1.0520   0.35005   0.34436   0.1403  1.0001  0.0296  -1.8392   0.0000   0.0000   0.0000   0.3483
 -27.000  -1.0194   0.34007   0.33432   0.1285  1.0001  0.0320  -1.8567   0.0000   0.0000   0.0000   0.3433
 -26.000  -0.9863   0.32759   0.32182   0.1184  1.0001  0.0335  -1.8330   0.0000   0.0000   0.0000   0.3395
 -25.000  -0.9518   0.31588   0.31004   0.1087  1.0001  0.0368  -1.7728   0.0000   0.0000   0.0000   0.3358
 -24.000  -0.9209   0.30986   0.30402   0.0950  1.0001  0.0392  -1.8898   0.0000   0.0000   0.0000   0.3268
 -23.000  -0.8815   0.29154   0.28565   0.0886  1.0001  0.0417  -1.7138   0.0000   0.0000   0.0000   0.3259
 -22.000  -0.8465   0.28073   0.27482   0.0779  1.0001  0.0468  -1.7470   0.0000   0.0000   0.0000   0.3191
 -21.000  -0.8101   0.26668   0.26076   0.0693  1.0001  0.0493  -1.7124   0.0000   0.0000   0.0000   0.3142
 -20.000  -0.7732   0.25409   0.24814   0.0606  1.0001  0.0548  -1.6578   0.0000   0.0000   0.0000   0.3086
 -19.000  -0.7409   0.24157   0.23565   0.0504  1.0001  0.0580  -1.6967   0.0000   0.0000   0.0000   0.2996
 -18.000  -0.7032   0.22819   0.22226   0.0431  1.0001  0.0661  -1.6396   0.0000   0.0000   0.0000   0.2943
 -17.000  -0.6694   0.21396   0.20804   0.0352  1.0001  0.0705  -1.6364   0.0000   0.0000   0.0000   0.2868
 -16.000  -0.6457   0.20344   0.19757   0.0254  1.0001  0.0792  -1.6914   0.0000   0.0000   0.0000   0.2748
 -15.000  -0.6044   0.18647   0.18060   0.0213  1.0001  0.0868  -1.5747   0.0000   0.0000   0.0000   0.2717
 -14.000  -0.5812   0.17243   0.16662   0.0138  1.0001  0.0958  -1.6317   0.0000   0.0000   0.0000   0.2613
 -13.000  -0.5925   0.16264   0.15697   0.0016  1.0001  0.1063  -1.8573   0.0000   0.0000   0.0000   0.2416
 -12.000  -0.5616   0.14569   0.14005  -0.0018  1.0001  0.1200  -1.7865   0.0000   0.0000   0.0000   0.2365
 -11.000  -0.5616   0.13073   0.12521  -0.0096  1.0001  0.1349  -1.8695   0.0000   0.0000   0.0000   0.2237
 -10.000  -0.5511   0.11364   0.10824  -0.0147  1.0001  0.1501  -1.9126   0.0000   0.0000   0.0000   0.2150
  -9.000  -0.5637   0.08497   0.07967  -0.0284  1.0001  0.1084  -2.3445   0.0000   0.0000   0.0000   0.1917
  -8.000  -0.6662   0.05070   0.04452  -0.0423  1.0001  0.0762  -3.3180   0.0000   0.0000   0.0000   0.1794
  -7.000  -0.6501   0.03536   0.02719  -0.0346  1.0001  0.0805  -3.4109   0.0000   0.0000   0.0000   0.1900
  -6.000  -0.5760   0.02722   0.01822  -0.0287  1.0001  0.1020  -3.0164   0.0000   0.0000   0.0000   0.1939
  -5.000  -0.4882   0.02194   0.01266  -0.0240  1.0001  0.1556  -2.5514   0.0000   0.0000   0.0000   0.1952
  -4.000  -0.3960   0.01862   0.00971  -0.0203  1.0001  0.2663  -1.9909   0.0000   0.0000   0.0000   0.1935
  -3.000  -0.3009   0.01630   0.00842  -0.0173  1.0001  0.4801  -1.4505   0.0000   0.0000   0.0000   0.1877
  -2.000  -0.2246   0.01527   0.00883  -0.0071  1.0001  0.8148  -1.0223   0.0000   0.0000   0.0000   0.2139
  -1.000  -0.1067   0.01597   0.00910  -0.0099  1.0001  0.9999  -0.6908   0.0000   0.0000   0.0000   0.1521
   0.000   0.0683   0.01736   0.00997  -0.0259  0.9657  0.9999  -0.4494   0.0000   0.0000   0.0000   0.6292
   1.000   0.2884   0.01727   0.00979  -0.0463  0.9040  0.9999  -0.6576   0.0000   0.0000   0.0000   0.4083
   2.000   0.4483   0.01570   0.00826  -0.0507  0.8226  0.9999  -0.8799   0.0000   0.0000   0.0000   0.3600
   3.000   0.5552   0.01511   0.00740  -0.0444  0.7048  0.9999  -1.1020   0.0000   0.0000   0.0000   0.3262
   4.000   0.6514   0.01614   0.00780  -0.0381  0.5664  0.9999  -1.3620   0.0000   0.0000   0.0000   0.3038
   5.000   0.7458   0.01812   0.00923  -0.0332  0.4349  0.9999  -1.6758   0.0000   0.0000   0.0000   0.2888
   6.000   0.8398   0.02080   0.01149  -0.0290  0.3260  0.9999  -2.0776   0.0000   0.0000   0.0000   0.2779
   7.000   0.9327   0.02418   0.01469  -0.0251  0.2419  0.9999  -2.5944   0.0000   0.0000   0.0000   0.2692
   8.000   1.0235   0.02856   0.01908  -0.0212  0.1801  0.9999  -3.1911   0.0000   0.0000   0.0000   0.2619
   9.000   1.1065   0.03443   0.02529  -0.0168  0.1351  0.9999  -3.8134   0.0000   0.0000   0.0000   0.2551
  10.000   1.1626   0.04255   0.03445  -0.0098  0.1051  0.9999  -4.3306   0.0000   0.0000   0.0000   0.2472
  11.000   1.1632   0.05418   0.04737   0.0000  0.0896  0.9999  -4.5481   0.0000   0.0000   0.0000   0.2375
  12.000   1.0910   0.06993   0.06406   0.0068  0.0856  0.9999  -4.4294   0.0000   0.0000   0.0000   0.2298
  13.000   0.8497   0.13579   0.13029  -0.0337  0.1093  0.9999  -2.6149   0.0000   0.0000   0.0000   0.2758
  15.000   0.8515   0.19213   0.18665  -0.0566  0.1357  0.9999  -2.0832   0.0000   0.0000   0.0000   0.3014
  16.000   0.8624   0.20791   0.20240  -0.0662  0.1216  0.9999  -2.0223   0.0000   0.0000   0.0000   0.3103
  17.000   0.8926   0.22497   0.21950  -0.0732  0.1082  0.9999  -2.0546   0.0000   0.0000   0.0000   0.3140
  20.000   0.6395   0.22015   0.21527  -0.0560  0.0851  0.9999  -1.2344   0.0000   0.0000   0.0000   0.3217
  21.000   0.6492   0.23207   0.22725  -0.0616  0.0768  0.9999  -1.1655   0.0000   0.0000   0.0000   0.3280
  22.000   0.6719   0.24698   0.24223  -0.0650  0.0708  0.9999  -1.2449   0.0000   0.0000   0.0000   0.3285
  23.000   0.6790   0.25690   0.25224  -0.0713  0.0623  0.9999  -1.1750   0.0000   0.0000   0.0000   0.3354
  24.000   0.6903   0.27003   0.26543  -0.0768  0.0585  0.9999  -1.1229   0.0000   0.0000   0.0000   0.3403
  25.000   0.7070   0.28331   0.27881  -0.0812  0.0515  0.9999  -1.1842   0.0000   0.0000   0.0000   0.3422
  26.000   0.7147   0.29610   0.29166  -0.0875  0.0481  0.9999  -1.0941   0.0000   0.0000   0.0000   0.3483
  27.000   0.7285   0.30944   0.30511  -0.0922  0.0431  0.9999  -1.1132   0.0000   0.0000   0.0000   0.3506
  28.000   0.7370   0.32300   0.31874  -0.0982  0.0401  0.9999  -1.0699   0.0000   0.0000   0.0000   0.3554
  29.000   0.7479   0.33638   0.33222  -0.1033  0.0360  0.9999  -1.0881   0.0000   0.0000   0.0000   0.3583
  30.000   0.7566   0.35057   0.34648  -0.1087  0.0343  0.9999  -1.0583   0.0000   0.0000   0.0000   0.3616


