xflr5 v6.61

 Calculated polar for: SJ4_12_86

 1 1 Reynolds number fixed          Mach number fixed         

 xtrf =   1.000 (top)        1.000 (bottom)
 Mach =   0.200     Re =     0.060 e 6     Ncrit =   9.000

  alpha     CL        CD       CDp       Cm    Top Xtr Bot Xtr   Cpmin    Chinge    XCp    
 ------- -------- --------- --------- -------- ------- ------- -------- --------- ---------
 -29.000  -1.0463   0.35370   0.34661   0.1390  1.0001  0.0484  -1.8409   0.0000   0.0000   0.0000   0.3410
 -28.000  -1.0147   0.34425   0.33709   0.1277  1.0001  0.0526  -1.8336   0.0000   0.0000   0.0000   0.3366
 -27.000  -0.9820   0.33268   0.32547   0.1172  1.0001  0.0552  -1.7956   0.0000   0.0000   0.0000   0.3325
 -26.000  -0.9479   0.32170   0.31441   0.1070  1.0001  0.0601  -1.7502   0.0000   0.0000   0.0000   0.3284
 -25.000  -0.9152   0.31147   0.30418   0.0958  1.0001  0.0629  -1.7775   0.0000   0.0000   0.0000   0.3223
 -24.000  -0.8783   0.29884   0.29147   0.0869  1.0001  0.0695  -1.7021   0.0000   0.0000   0.0000   0.3186
 -23.000  -0.8442   0.28738   0.28001   0.0766  1.0001  0.0732  -1.6895   0.0000   0.0000   0.0000   0.3123
 -22.000  -0.8071   0.27525   0.26784   0.0677  1.0001  0.0805  -1.6541   0.0000   0.0000   0.0000   0.3073
 -21.000  -0.7707   0.26233   0.25492   0.0589  1.0001  0.0860  -1.6270   0.0000   0.0000   0.0000   0.3015
 -20.000  -0.7470   0.25757   0.25018   0.0468  1.0001  0.0942  -1.6967   0.0000   0.0000   0.0000   0.2897
 -19.000  -0.6978   0.23722   0.22980   0.0421  1.0001  0.1023  -1.5677   0.0000   0.0000   0.0000   0.2884
 -18.000  -0.6636   0.22441   0.21701   0.0340  1.0001  0.1115  -1.5635   0.0000   0.0000   0.0000   0.2806
 -17.000  -0.6415   0.21486   0.20754   0.0242  1.0001  0.1218  -1.6184   0.0000   0.0000   0.0000   0.2687
 -16.000  -0.6172   0.20431   0.19700   0.0166  1.0001  0.1351  -1.6259   0.0000   0.0000   0.0000   0.2593
 -15.000  -0.5890   0.19048   0.18322   0.0105  1.0001  0.1499  -1.6247   0.0000   0.0000   0.0000   0.2515
 -14.000  -0.5670   0.17682   0.16962   0.0047  1.0001  0.1653  -1.6330   0.0000   0.0000   0.0000   0.2431
 -13.000  -0.5209   0.15822   0.15102   0.0020  1.0001  0.1841  -1.5424   0.0000   0.0000   0.0000   0.2392
 -12.000  -0.4980   0.14462   0.13747  -0.0015  1.0001  0.2100  -1.5430   0.0000   0.0000   0.0000   0.2333
 -11.000  -0.4781   0.12985   0.12277  -0.0045  1.0001  0.2349  -1.5422   0.0000   0.0000   0.0000   0.2278
 -10.000  -0.4689   0.11581   0.10882  -0.0072  1.0001  0.2660  -1.5650   0.0000   0.0000   0.0000   0.2230
  -9.000  -0.6687   0.06820   0.06132  -0.0436  1.0001  0.1347  -2.9114   0.0000   0.0000   0.0000   0.1753
  -8.000  -0.6976   0.05207   0.04464  -0.0373  1.0001  0.1409  -2.9920   0.0000   0.0000   0.0000   0.1880
  -7.000  -0.6808   0.03952   0.03077  -0.0290  1.0001  0.1620  -2.9203   0.0000   0.0000   0.0000   0.1997
  -6.000  -0.6157   0.03194   0.02247  -0.0224  1.0001  0.2046  -2.5718   0.0000   0.0000   0.0000   0.2065
  -5.000  -0.5340   0.02694   0.01716  -0.0171  1.0001  0.2719  -2.1427   0.0000   0.0000   0.0000   0.2114
  -4.000  -0.4462   0.02361   0.01403  -0.0126  1.0001  0.3765  -1.7012   0.0000   0.0000   0.0000   0.2158
  -3.000  -0.3582   0.02147   0.01267  -0.0074  1.0001  0.5390  -1.3171   0.0000   0.0000   0.0000   0.2237
  -2.000  -0.2893   0.02067   0.01296   0.0043  1.0001  0.7783  -1.0482   0.0000   0.0000   0.0000   0.2599
  -1.000  -0.1194   0.02193   0.01386  -0.0077  1.0001  0.9999  -0.7275   0.0000   0.0000   0.0000   0.1790
   0.000  -0.0247   0.02356   0.01489  -0.0134  0.9770  0.9999  -0.5566   0.0000   0.0000   0.0000  -0.3001
   1.000   0.2058   0.02527   0.01631  -0.0379  0.8981  0.9999  -0.6439   0.0000   0.0000   0.0000   0.4308
   2.000   0.4198   0.02395   0.01507  -0.0528  0.8152  0.9999  -0.8876   0.0000   0.0000   0.0000   0.3718
   3.000   0.5590   0.02226   0.01333  -0.0507  0.7183  0.9999  -1.1175   0.0000   0.0000   0.0000   0.3361
   4.000   0.6646   0.02239   0.01304  -0.0439  0.6105  0.9999  -1.3499   0.0000   0.0000   0.0000   0.3106
   5.000   0.7568   0.02431   0.01461  -0.0374  0.5045  0.9999  -1.6000   0.0000   0.0000   0.0000   0.2929
   6.000   0.8491   0.02716   0.01719  -0.0319  0.4130  0.9999  -1.8882   0.0000   0.0000   0.0000   0.2802
   7.000   0.9383   0.03109   0.02109  -0.0269  0.3382  0.9999  -2.2152   0.0000   0.0000   0.0000   0.2702
   8.000   1.0242   0.03603   0.02616  -0.0221  0.2786  0.9999  -2.6061   0.0000   0.0000   0.0000   0.2620
   9.000   1.0880   0.04307   0.03388  -0.0158  0.2331  0.9999  -2.9840   0.0000   0.0000   0.0000   0.2538
  10.000   1.1287   0.05228   0.04381  -0.0085  0.2003  0.9999  -3.3188   0.0000   0.0000   0.0000   0.2455
  11.000   1.0772   0.06722   0.05970   0.0017  0.1846  0.9999  -3.3179   0.0000   0.0000   0.0000   0.2352
  16.000   0.8072   0.20460   0.19744  -0.0635  0.1999  0.9999  -1.7208   0.0000   0.0000   0.0000   0.3101
  17.000   0.8286   0.21807   0.21093  -0.0716  0.1811  0.9999  -1.7169   0.0000   0.0000   0.0000   0.3162
  18.000   0.8556   0.23075   0.22365  -0.0800  0.1611  0.9999  -1.7266   0.0000   0.0000   0.0000   0.3216
  19.000   0.8891   0.24452   0.23749  -0.0879  0.1447  0.9999  -1.7674   0.0000   0.0000   0.0000   0.3252
  20.000   0.9225   0.25810   0.25111  -0.0966  0.1310  0.9999  -1.7920   0.0000   0.0000   0.0000   0.3292
  21.000   0.9561   0.27146   0.26453  -0.1057  0.1188  0.9999  -1.8225   0.0000   0.0000   0.0000   0.3330
  22.000   0.9907   0.28494   0.27806  -0.1149  0.1087  0.9999  -1.8537   0.0000   0.0000   0.0000   0.3364
  23.000   1.0333   0.30386   0.29708  -0.1212  0.0994  0.9999  -1.9716   0.0000   0.0000   0.0000   0.3357
  24.000   1.0619   0.31186   0.30514  -0.1330  0.0891  0.9999  -1.9660   0.0000   0.0000   0.0000   0.3411
  25.000   1.0919   0.32287   0.31618  -0.1450  0.0829  0.9999  -1.9258   0.0000   0.0000   0.0000   0.3463
  26.000   1.1281   0.33874   0.33214  -0.1532  0.0764  0.9999  -2.0337   0.0000   0.0000   0.0000   0.3468
  27.000   1.1576   0.34721   0.34068  -0.1657  0.0693  0.9999  -2.0172   0.0000   0.0000   0.0000   0.3514
  28.000   1.1885   0.35915   0.35269  -0.1768  0.0649  0.9999  -2.0242   0.0000   0.0000   0.0000   0.3541
  29.000   1.2199   0.37139   0.36504  -0.1868  0.0588  0.9999  -2.1128   0.0000   0.0000   0.0000   0.3555
  30.000   1.2479   0.38136   0.37507  -0.1994  0.0556  0.9999  -2.0940   0.0000   0.0000   0.0000   0.3590


