xflr5 v6.61

 Calculated polar for: SJ4_11_06

 1 1 Reynolds number fixed          Mach number fixed         

 xtrf =   1.000 (top)        1.000 (bottom)
 Mach =   0.200     Re =     0.080 e 6     Ncrit =   9.000

  alpha     CL        CD       CDp       Cm    Top Xtr Bot Xtr   Cpmin    Chinge    XCp    
 ------- -------- --------- --------- -------- ------- ------- -------- --------- ---------
 -27.000  -1.0189   0.33879   0.33270   0.1290  1.0001  0.0350  -1.8017   0.0000   0.0000   0.0000   0.3439
 -26.000  -0.9855   0.32862   0.32248   0.1176  1.0001  0.0386  -1.8239   0.0000   0.0000   0.0000   0.3389
 -25.000  -0.9520   0.31671   0.31055   0.1070  1.0001  0.0401  -1.8284   0.0000   0.0000   0.0000   0.3340
 -24.000  -0.9162   0.30391   0.29770   0.0982  1.0001  0.0436  -1.7293   0.0000   0.0000   0.0000   0.3308
 -23.000  -0.8851   0.29743   0.29119   0.0851  1.0001  0.0473  -1.8179   0.0000   0.0000   0.0000   0.3217
 -22.000  -0.8449   0.27938   0.27311   0.0787  1.0001  0.0509  -1.6892   0.0000   0.0000   0.0000   0.3204
 -21.000  -0.8113   0.26940   0.26311   0.0677  1.0001  0.0563  -1.7307   0.0000   0.0000   0.0000   0.3123
 -20.000  -0.7735   0.25417   0.24788   0.0600  1.0001  0.0593  -1.6622   0.0000   0.0000   0.0000   0.3079
 -19.000  -0.7394   0.24287   0.23657   0.0505  1.0001  0.0668  -1.6521   0.0000   0.0000   0.0000   0.3000
 -18.000  -0.7018   0.22785   0.22157   0.0435  1.0001  0.0718  -1.6109   0.0000   0.0000   0.0000   0.2949
 -17.000  -0.6820   0.22029   0.21406   0.0318  1.0001  0.0795  -1.7291   0.0000   0.0000   0.0000   0.2812
 -16.000  -0.6342   0.20095   0.19470   0.0283  1.0001  0.0868  -1.5673   0.0000   0.0000   0.0000   0.2800
 -15.000  -0.6064   0.18731   0.18112   0.0207  1.0001  0.0961  -1.5841   0.0000   0.0000   0.0000   0.2706
 -14.000  -0.6127   0.17994   0.17386   0.0088  1.0001  0.1063  -1.7928   0.0000   0.0000   0.0000   0.2523
 -13.000  -0.5701   0.16160   0.15552   0.0061  1.0001  0.1197  -1.6884   0.0000   0.0000   0.0000   0.2495
 -12.000  -0.5599   0.14752   0.14153  -0.0006  1.0001  0.1345  -1.7362   0.0000   0.0000   0.0000   0.2387
 -11.000  -0.5587   0.13279   0.12693  -0.0078  1.0001  0.1497  -1.8076   0.0000   0.0000   0.0000   0.2269
 -10.000  -0.5142   0.11507   0.10923  -0.0070  1.0001  0.1683  -1.7047   0.0000   0.0000   0.0000   0.2278
  -8.000  -0.6465   0.05578   0.04964  -0.0417  1.0001  0.0889  -3.0802   0.0000   0.0000   0.0000   0.1784
  -7.000  -0.6426   0.03848   0.03061  -0.0355  1.0001  0.0896  -3.2477   0.0000   0.0000   0.0000   0.1882
  -6.000  -0.5756   0.02891   0.01980  -0.0293  1.0001  0.1115  -2.9552   0.0000   0.0000   0.0000   0.1930
  -5.000  -0.4884   0.02317   0.01362  -0.0244  1.0001  0.1676  -2.5193   0.0000   0.0000   0.0000   0.1945
  -4.000  -0.3969   0.01955   0.01041  -0.0204  1.0001  0.2819  -1.9754   0.0000   0.0000   0.0000   0.1933
  -3.000  -0.3038   0.01700   0.00896  -0.0166  1.0001  0.5017  -1.4469   0.0000   0.0000   0.0000   0.1905
  -2.000  -0.2320   0.01605   0.00938  -0.0042  1.0001  0.8483  -1.0301   0.0000   0.0000   0.0000   0.2274
  -1.000  -0.1039   0.01660   0.00928  -0.0102  1.0001  0.9999  -0.6862   0.0000   0.0000   0.0000   0.1471
   0.000   0.0221   0.01821   0.01038  -0.0180  0.9825  0.9999  -0.4582   0.0000   0.0000   0.0000   1.0658
   1.000   0.2485   0.01897   0.01099  -0.0408  0.9158  0.9999  -0.6232   0.0000   0.0000   0.0000   0.4116
   2.000   0.4380   0.01745   0.00960  -0.0511  0.8365  0.9999  -0.8643   0.0000   0.0000   0.0000   0.3636
   3.000   0.5556   0.01636   0.00835  -0.0459  0.7244  0.9999  -1.0971   0.0000   0.0000   0.0000   0.3288
   4.000   0.6524   0.01720   0.00866  -0.0390  0.5850  0.9999  -1.3566   0.0000   0.0000   0.0000   0.3051
   5.000   0.7470   0.01922   0.01010  -0.0336  0.4519  0.9999  -1.6690   0.0000   0.0000   0.0000   0.2894
   6.000   0.8407   0.02205   0.01254  -0.0291  0.3402  0.9999  -2.0657   0.0000   0.0000   0.0000   0.2781
   7.000   0.9342   0.02571   0.01592  -0.0252  0.2545  0.9999  -2.5779   0.0000   0.0000   0.0000   0.2693
   8.000   1.0231   0.03055   0.02099  -0.0210  0.1906  0.9999  -3.1481   0.0000   0.0000   0.0000   0.2617
   9.000   1.1002   0.03708   0.02814  -0.0158  0.1447  0.9999  -3.7189   0.0000   0.0000   0.0000   0.2544
  10.000   1.1481   0.04627   0.03837  -0.0085  0.1149  0.9999  -4.1720   0.0000   0.0000   0.0000   0.2463
  11.000   1.1254   0.05963   0.05298   0.0017  0.1017  0.9999  -4.2649   0.0000   0.0000   0.0000   0.2362
  12.000   1.0730   0.07530   0.06916   0.0060  0.0951  0.9999  -4.2451   0.0000   0.0000   0.0000   0.2306
  15.000   0.8421   0.19402   0.18817  -0.0591  0.1497  0.9999  -1.9856   0.0000   0.0000   0.0000   0.3052
  16.000   0.8510   0.20820   0.20231  -0.0685  0.1351  0.9999  -1.9237   0.0000   0.0000   0.0000   0.3141
  17.000   0.8691   0.22150   0.21562  -0.0781  0.1204  0.9999  -1.8727   0.0000   0.0000   0.0000   0.3219
  18.000   0.9010   0.23676   0.23090  -0.0858  0.1074  0.9999  -1.9151   0.0000   0.0000   0.0000   0.3257
  19.000   0.9477   0.25727   0.25150  -0.0906  0.0953  0.9999  -2.0604   0.0000   0.0000   0.0000   0.3245
  20.000   0.9640   0.26388   0.25809  -0.1041  0.0844  0.9999  -1.9387   0.0000   0.0000   0.0000   0.3349
  21.000   0.9931   0.27708   0.27128  -0.1156  0.0775  0.9999  -1.9007   0.0000   0.0000   0.0000   0.3415
  22.000   1.0317   0.29366   0.28793  -0.1226  0.0706  0.9999  -2.0094   0.0000   0.0000   0.0000   0.3419
  23.000   1.0623   0.30406   0.29836  -0.1346  0.0628  0.9999  -1.9607   0.0000   0.0000   0.0000   0.3477
  24.000   1.0955   0.31771   0.31204  -0.1450  0.0587  0.9999  -1.9883   0.0000   0.0000   0.0000   0.3512
  25.000   1.1301   0.33077   0.32518  -0.1543  0.0518  0.9999  -2.0756   0.0000   0.0000   0.0000   0.3530
  26.000   1.1613   0.34293   0.33738  -0.1664  0.0490  0.9999  -2.0246   0.0000   0.0000   0.0000   0.3572
  27.000   1.1937   0.35505   0.34958  -0.1767  0.0435  0.9999  -2.0859   0.0000   0.0000   0.0000   0.3593
  28.000   1.2242   0.36726   0.36183  -0.1881  0.0411  0.9999  -2.1030   0.0000   0.0000   0.0000   0.3623
  29.000   1.2543   0.37839   0.37305  -0.1996  0.0369  0.9999  -2.1267   0.0000   0.0000   0.0000   0.3649
  30.000   1.2835   0.39376   0.38849  -0.2085  0.0348  0.9999  -2.2391   0.0000   0.0000   0.0000   0.3652


