xflr5 v6.61

 Calculated polar for: SJ4_7_00

 1 1 Reynolds number fixed          Mach number fixed         

 xtrf =   1.000 (top)        1.000 (bottom)
 Mach =   0.200     Re =     0.500 e 6     Ncrit =   9.000

  alpha     CL        CD       CDp       Cm    Top Xtr Bot Xtr   Cpmin    Chinge    XCp    
 ------- -------- --------- --------- -------- ------- ------- -------- --------- ---------
 -19.000  -0.5516   0.20828   0.20611   0.0355  1.0001  0.0067  -1.2369   0.0000   0.0000   0.0000   0.3076
 -18.000  -0.5333   0.19769   0.19550   0.0308  1.0001  0.0076  -1.2160   0.0000   0.0000   0.0000   0.3016
 -17.000  -0.5155   0.18688   0.18468   0.0257  1.0001  0.0093  -1.3415   0.0000   0.0000   0.0000   0.2942
 -16.000  -0.5041   0.17721   0.17499   0.0196  1.0001  0.0096  -1.5348   0.0000   0.0000   0.0000   0.2836
 -15.000  -0.4881   0.16528   0.16306   0.0160  1.0001  0.0099  -1.5108   0.0000   0.0000   0.0000   0.2779
 -14.000  -0.4733   0.15566   0.15343   0.0130  1.0001  0.0107  -1.3365   0.0000   0.0000   0.0000   0.2731
 -13.000  -0.6364   0.16386   0.16146   0.0319  1.0001  0.0102  -1.8832   0.0000   0.0000   0.0000   0.2938
 -12.000  -0.6129   0.14929   0.14691   0.0262  1.0001  0.0112  -1.8339   0.0000   0.0000   0.0000   0.2872
 -11.000  -0.5935   0.13363   0.13128   0.0197  1.0001  0.0130  -1.9540   0.0000   0.0000   0.0000   0.2783
 -10.000  -0.5773   0.11676   0.11446   0.0098  1.0001  0.0142  -2.3523   0.0000   0.0000   0.0000   0.2624
  -9.000  -0.5735   0.09869   0.09644   0.0031  1.0001  0.0152  -2.5525   0.0000   0.0000   0.0000   0.2514
  -8.000  -0.5595   0.08409   0.08191  -0.0046  1.0001  0.0173  -2.4286   0.0000   0.0000   0.0000   0.2385
  -7.000  -0.5286   0.06091   0.05864  -0.0301  1.0001  0.0204  -2.8444   0.0000   0.0000   0.0000   0.1902
  -6.000  -0.4904   0.03734   0.03413  -0.0384  1.0001  0.0221  -3.2436   0.0000   0.0000   0.0000   0.1688
  -4.000  -0.3239   0.01293   0.00696  -0.0300  1.0001  0.0154  -3.3334   0.0000   0.0000   0.0000   0.1546
  -3.000  -0.2167   0.01029   0.00405  -0.0285  0.9996  0.0212  -2.4119   0.0000   0.0000   0.0000   0.1157
  -2.000  -0.0631   0.00739   0.00224  -0.0379  0.9895  0.3477  -1.4159   0.0000   0.0000   0.0000  -0.3557
  -1.000   0.0715   0.00535   0.00211  -0.0413  0.9727  0.9559  -0.5519   0.0000   0.0000   0.0000   0.8285
   0.000   0.2088   0.00508   0.00165  -0.0452  0.9323  0.9999  -0.4014   0.0000   0.0000   0.0000   0.4660
   1.000   0.3113   0.00506   0.00135  -0.0414  0.8473  0.9999  -0.5506   0.0000   0.0000   0.0000   0.3819
   2.000   0.4170   0.00573   0.00138  -0.0388  0.6834  0.9999  -0.7854   0.0000   0.0000   0.0000   0.3412
   3.000   0.5243   0.00708   0.00184  -0.0374  0.4595  0.9999  -1.1475   0.0000   0.0000   0.0000   0.3190
   4.000   0.6330   0.00865   0.00268  -0.0369  0.2604  0.9999  -1.8272   0.0000   0.0000   0.0000   0.3052
   5.000   0.7405   0.01059   0.00399  -0.0362  0.0978  0.9999  -2.8613   0.0000   0.0000   0.0000   0.2950
   6.000   0.8455   0.01315   0.00641  -0.0346  0.0276  0.9999  -4.0888   0.0000   0.0000   0.0000   0.2861
   7.000   0.9421   0.01730   0.01096  -0.0313  0.0145  0.9999  -5.3099   0.0000   0.0000   0.0000   0.2774
   8.000   1.0332   0.02261   0.01699  -0.0272  0.0107  0.9999  -6.4662   0.0000   0.0000   0.0000   0.2695
  10.000   1.0441   0.05183   0.04900  -0.0108  0.0098  0.9999  -6.8450   0.0000   0.0000   0.0000   0.2516
  11.000   0.9137   0.10263   0.10062  -0.0438  0.0120  0.9999  -4.4170   0.0000   0.0000   0.0000   0.2890
  12.000   0.7323   0.11671   0.11473  -0.0350  0.0128  0.9999  -3.4620   0.0000   0.0000   0.0000   0.2892


