xflr5 v6.61

 Calculated polar for: SJ4_7_45

 1 1 Reynolds number fixed          Mach number fixed         

 xtrf =   1.000 (top)        1.000 (bottom)
 Mach =   0.200     Re =     0.080 e 6     Ncrit =   9.000

  alpha     CL        CD       CDp       Cm    Top Xtr Bot Xtr   Cpmin    Chinge    XCp    
 ------- -------- --------- --------- -------- ------- ------- -------- --------- ---------
 -27.000  -1.0870   0.35209   0.34636   0.1477  1.0001  0.0217  -1.8980   0.0000   0.0000   0.0000   0.3608
 -26.000  -1.0555   0.33904   0.33325   0.1383  1.0001  0.0234  -1.8085   0.0000   0.0000   0.0000   0.3580
 -25.000  -1.0223   0.32727   0.32139   0.1282  1.0001  0.0255  -1.7626   0.0000   0.0000   0.0000   0.3543
 -24.000  -0.9877   0.31553   0.30960   0.1179  1.0001  0.0279  -1.7324   0.0000   0.0000   0.0000   0.3500
 -23.000  -0.9543   0.31072   0.30479   0.1050  1.0001  0.0298  -1.8029   0.0000   0.0000   0.0000   0.3424
 -22.000  -0.9183   0.29234   0.28637   0.0969  1.0001  0.0311  -1.7217   0.0000   0.0000   0.0000   0.3393
 -21.000  -0.8820   0.27758   0.27156   0.0892  1.0001  0.0342  -1.6391   0.0000   0.0000   0.0000   0.3364
 -20.000  -0.8458   0.26490   0.25886   0.0801  1.0001  0.0382  -1.6446   0.0000   0.0000   0.0000   0.3313
 -19.000  -0.8149   0.25843   0.25242   0.0678  1.0001  0.0409  -1.7796   0.0000   0.0000   0.0000   0.3212
 -18.000  -0.7757   0.23870   0.23266   0.0618  1.0001  0.0432  -1.6831   0.0000   0.0000   0.0000   0.3187
 -17.000  -0.7395   0.22461   0.21856   0.0548  1.0001  0.0488  -1.5867   0.0000   0.0000   0.0000   0.3142
 -16.000  -0.7219   0.21994   0.21398   0.0421  1.0001  0.0535  -1.7430   0.0000   0.0000   0.0000   0.2997
 -15.000  -0.6743   0.19697   0.19095   0.0398  1.0001  0.0600  -1.5222   0.0000   0.0000   0.0000   0.3009
 -14.000  -0.6622   0.18904   0.18312   0.0286  1.0001  0.0663  -1.7174   0.0000   0.0000   0.0000   0.2862
 -13.000  -0.6191   0.16870   0.16278   0.0265  1.0001  0.0739  -1.5972   0.0000   0.0000   0.0000   0.2864
 -12.000  -0.6119   0.15655   0.15077   0.0169  1.0001  0.0807  -1.7615   0.0000   0.0000   0.0000   0.2721
 -11.000  -0.5919   0.14209   0.13637   0.0114  1.0001  0.0927  -1.7555   0.0000   0.0000   0.0000   0.2643
 -10.000  -0.5799   0.12739   0.12176   0.0050  1.0001  0.1065  -1.7804   0.0000   0.0000   0.0000   0.2544
  -9.000  -0.5660   0.11124   0.10577  -0.0001  1.0001  0.1219  -1.7687   0.0000   0.0000   0.0000   0.2462
  -8.000  -0.5414   0.09582   0.09046  -0.0019  1.0001  0.1422  -1.6564   0.0000   0.0000   0.0000   0.2433
  -7.000  -0.5373   0.08056   0.07543  -0.0109  1.0001  0.1670  -1.7465   0.0000   0.0000   0.0000   0.2272
  -6.000  -0.5102   0.06498   0.05984  -0.0184  1.0001  0.2096  -1.7638   0.0000   0.0000   0.0000   0.2119
  -5.000  -0.4287   0.03490   0.02703  -0.0366  1.0001  0.0778  -2.5786   0.0000   0.0000   0.0000   0.1617
  -4.000  -0.3296   0.02374   0.01399  -0.0330  1.0001  0.0787  -2.4393   0.0000   0.0000   0.0000   0.1469
  -3.000  -0.2288   0.01698   0.00743  -0.0291  1.0001  0.1653  -2.0676   0.0000   0.0000   0.0000   0.1198
  -2.000  -0.1148   0.01255   0.00552  -0.0253  1.0001  0.9999  -1.3379   0.0000   0.0000   0.0000   0.0259
  -1.000  -0.0271   0.01267   0.00473  -0.0218  1.0001  0.9999  -0.7304   0.0000   0.0000   0.0000  -0.5595
   0.000   0.0663   0.01327   0.00485  -0.0198  1.0001  0.9999  -0.3244   0.0000   0.0000   0.0000   0.5475
   1.000   0.1584   0.01448   0.00591  -0.0189  1.0001  0.9999  -0.4312   0.0000   0.0000   0.0000   0.3674
   2.000   0.3259   0.01630   0.00800  -0.0336  0.9619  0.9999  -0.6473   0.0000   0.0000   0.0000   0.3509
   3.000   0.5348   0.01513   0.00758  -0.0473  0.8459  0.9999  -1.0831   0.0000   0.0000   0.0000   0.3359
   4.000   0.6384   0.01492   0.00718  -0.0376  0.6301  0.9999  -1.6399   0.0000   0.0000   0.0000   0.3059
   5.000   0.7250   0.01804   0.00909  -0.0299  0.3466  0.9999  -2.3594   0.0000   0.0000   0.0000   0.2873
   6.000   0.8128   0.02371   0.01388  -0.0249  0.1515  0.9999  -3.1524   0.0000   0.0000   0.0000   0.2759
   7.000   0.9073   0.03266   0.02338  -0.0207  0.0848  0.9999  -3.7805   0.0000   0.0000   0.0000   0.2671
   8.000   0.9696   0.04713   0.03987  -0.0146  0.0691  0.9999  -4.0628   0.0000   0.0000   0.0000   0.2587
   9.000   0.9504   0.06803   0.06250  -0.0106  0.0703  0.9999  -3.7818   0.0000   0.0000   0.0000   0.2544
  10.000   0.8604   0.10018   0.09502  -0.0287  0.0867  0.9999  -2.9785   0.0000   0.0000   0.0000   0.2761
  13.000   0.6260   0.15190   0.14672  -0.0413  0.1382  0.9999  -1.5160   0.0000   0.0000   0.0000   0.3088
  14.000   0.6268   0.16267   0.15751  -0.0444  0.1203  0.9999  -1.4552   0.0000   0.0000   0.0000   0.3130
  15.000   0.6316   0.17394   0.16883  -0.0484  0.1076  0.9999  -1.3746   0.0000   0.0000   0.0000   0.3182
  16.000   0.6412   0.18530   0.18021  -0.0525  0.0936  0.9999  -1.3407   0.0000   0.0000   0.0000   0.3225
  17.000   0.6513   0.19708   0.19200  -0.0571  0.0847  0.9999  -1.3138   0.0000   0.0000   0.0000   0.3275
  18.000   0.6773   0.21332   0.20830  -0.0595  0.0759  0.9999  -1.3976   0.0000   0.0000   0.0000   0.3268
  19.000   0.6785   0.22113   0.21618  -0.0661  0.0666  0.9999  -1.2731   0.0000   0.0000   0.0000   0.3353
  20.000   0.6910   0.23379   0.22887  -0.0711  0.0613  0.9999  -1.2090   0.0000   0.0000   0.0000   0.3397
  21.000   0.7060   0.24631   0.24146  -0.0757  0.0537  0.9999  -1.1854   0.0000   0.0000   0.0000   0.3429
  22.000   0.7207   0.26084   0.25604  -0.0803  0.0508  0.9999  -1.2084   0.0000   0.0000   0.0000   0.3458
  23.000   0.7307   0.27219   0.26749  -0.0864  0.0450  0.9999  -1.1553   0.0000   0.0000   0.0000   0.3512
  24.000   0.7545   0.29268   0.28805  -0.0890  0.0400  0.9999  -1.2987   0.0000   0.0000   0.0000   0.3495
  25.000   0.7560   0.29963   0.29506  -0.0964  0.0382  0.9999  -1.1237   0.0000   0.0000   0.0000   0.3576
  26.000   0.7673   0.31309   0.30864  -0.1018  0.0340  0.9999  -1.0735   0.0000   0.0000   0.0000   0.3611
  27.000   0.7801   0.32800   0.32365  -0.1062  0.0305  0.9999  -1.1001   0.0000   0.0000   0.0000   0.3626
  28.000   0.7909   0.34459   0.34030  -0.1110  0.0294  0.9999  -1.0969   0.0000   0.0000   0.0000   0.3650
  29.000   0.7971   0.35563   0.35143  -0.1175  0.0271  0.9999  -1.0343   0.0000   0.0000   0.0000   0.3700
  30.000   0.8053   0.36973   0.36566  -0.1227  0.0242  0.9999  -1.0429   0.0000   0.0000   0.0000   0.3729


