xflr5 v6.61

 Calculated polar for: SJ4_8_70

 1 1 Reynolds number fixed          Mach number fixed         

 xtrf =   1.000 (top)        1.000 (bottom)
 Mach =   0.200     Re =     0.500 e 6     Ncrit =   9.000

  alpha     CL        CD       CDp       Cm    Top Xtr Bot Xtr   Cpmin    Chinge    XCp    
 ------- -------- --------- --------- -------- ------- ------- -------- --------- ---------
  -7.000  -0.6117   0.02952   0.02561  -0.0379  1.0001  0.0171  -4.5223   0.0000   0.0000   0.0000   0.1829
  -5.000  -0.4558   0.01326   0.00711  -0.0266  1.0001  0.0197  -3.6655   0.0000   0.0000   0.0000   0.1874
  -4.000  -0.3265   0.01078   0.00441  -0.0299  0.9955  0.0312  -2.7115   0.0000   0.0000   0.0000   0.1543
  -3.000  -0.1742   0.00873   0.00297  -0.0386  0.9853  0.1891  -1.7196   0.0000   0.0000   0.0000   0.0237
  -2.000  -0.0227   0.00692   0.00236  -0.0473  0.9717  0.5290  -0.8797   0.0000   0.0000   0.0000  -1.8563
  -1.000   0.0844   0.00564   0.00220  -0.0440  0.9371  0.8621  -0.4326   0.0000   0.0000   0.0000   0.7731
   0.000   0.1893   0.00542   0.00194  -0.0392  0.8827  0.9865  -0.4510   0.0000   0.0000   0.0000   0.4564
   1.000   0.3147   0.00553   0.00161  -0.0408  0.7793  0.9999  -0.6119   0.0000   0.0000   0.0000   0.3780
   2.000   0.4183   0.00623   0.00166  -0.0382  0.6295  0.9999  -0.8072   0.0000   0.0000   0.0000   0.3389
   3.000   0.5260   0.00730   0.00207  -0.0369  0.4659  0.9999  -1.0812   0.0000   0.0000   0.0000   0.3172
   4.000   0.6353   0.00858   0.00276  -0.0363  0.3149  0.9999  -1.4814   0.0000   0.0000   0.0000   0.3033
   5.000   0.7443   0.01005   0.00376  -0.0356  0.1900  0.9999  -2.1245   0.0000   0.0000   0.0000   0.2933
   6.000   0.8519   0.01176   0.00514  -0.0347  0.0991  0.9999  -2.9877   0.0000   0.0000   0.0000   0.2852
   7.000   0.9563   0.01389   0.00713  -0.0330  0.0457  0.9999  -4.0325   0.0000   0.0000   0.0000   0.2780
   8.000   1.0534   0.01694   0.01040  -0.0300  0.0245  0.9999  -5.1098   0.0000   0.0000   0.0000   0.2708
   9.000   1.1403   0.02095   0.01485  -0.0257  0.0170  0.9999  -6.2953   0.0000   0.0000   0.0000   0.2635
  10.000   1.2032   0.02751   0.02207  -0.0188  0.0137  0.9999  -7.3015   0.0000   0.0000   0.0000   0.2554
  11.000   1.2394   0.03459   0.03002  -0.0099  0.0117  0.9999  -8.1441   0.0000   0.0000   0.0000   0.2463
  12.000   1.2204   0.04539   0.04156  -0.0027  0.0108  0.9999  -8.5690   0.0000   0.0000   0.0000   0.2389
  13.000   1.1627   0.06817   0.06515  -0.0135  0.0106  0.9999  -8.3620   0.0000   0.0000   0.0000   0.2466
  14.000   1.0492   0.11088   0.10860  -0.0405  0.0114  0.9999  -6.9559   0.0000   0.0000   0.0000   0.2726
  15.000   0.9003   0.17268   0.17049  -0.0706  0.0141  0.9999  -3.6847   0.0000   0.0000   0.0000   0.3137


