xflr5 v6.61

 Calculated polar for: SJ4_7_45

 1 1 Reynolds number fixed          Mach number fixed         

 xtrf =   1.000 (top)        1.000 (bottom)
 Mach =   0.200     Re =     0.100 e 6     Ncrit =   9.000

  alpha     CL        CD       CDp       Cm    Top Xtr Bot Xtr   Cpmin    Chinge    XCp    
 ------- -------- --------- --------- -------- ------- ------- -------- --------- ---------
 -23.000  -0.9539   0.30314   0.29782   0.1084  1.0001  0.0223  -1.7515   0.0000   0.0000   0.0000   0.3458
 -22.000  -0.9187   0.29031   0.28493   0.0995  1.0001  0.0248  -1.6302   0.0000   0.0000   0.0000   0.3420
 -21.000  -0.8824   0.27792   0.27251   0.0898  1.0001  0.0282  -1.6482   0.0000   0.0000   0.0000   0.3369
 -20.000  -0.8504   0.27216   0.26677   0.0770  1.0001  0.0299  -1.8245   0.0000   0.0000   0.0000   0.3272
 -19.000  -0.8119   0.25220   0.24682   0.0704  1.0001  0.0312  -1.7652   0.0000   0.0000   0.0000   0.3245
 -18.000  -0.7751   0.23757   0.23214   0.0636  1.0001  0.0346  -1.6476   0.0000   0.0000   0.0000   0.3210
 -17.000  -0.7401   0.22443   0.21900   0.0550  1.0001  0.0391  -1.6305   0.0000   0.0000   0.0000   0.3144
 -16.000  -0.7218   0.21906   0.21371   0.0422  1.0001  0.0411  -1.8117   0.0000   0.0000   0.0000   0.2997
 -15.000  -0.6747   0.19610   0.19070   0.0403  1.0001  0.0469  -1.5318   0.0000   0.0000   0.0000   0.3016
 -14.000  -0.6552   0.18578   0.18045   0.0300  1.0001  0.0531  -1.7027   0.0000   0.0000   0.0000   0.2886
 -13.000  -0.6207   0.16746   0.16216   0.0264  1.0001  0.0573  -1.6490   0.0000   0.0000   0.0000   0.2860
 -12.000  -0.6047   0.15469   0.14946   0.0182  1.0001  0.0655  -1.7484   0.0000   0.0000   0.0000   0.2744
 -11.000  -0.5793   0.13803   0.13284   0.0145  1.0001  0.0712  -1.7063   0.0000   0.0000   0.0000   0.2698
 -10.000  -0.5876   0.12598   0.12096   0.0007  1.0001  0.0797  -1.9694   0.0000   0.0000   0.0000   0.2468
  -9.000  -0.5649   0.10915   0.10423  -0.0025  1.0001  0.0926  -1.8749   0.0000   0.0000   0.0000   0.2417
  -8.000  -0.5681   0.09342   0.08870  -0.0159  1.0001  0.1067  -1.9973   0.0000   0.0000   0.0000   0.2189
  -7.000  -0.5375   0.07672   0.07209  -0.0169  1.0001  0.1257  -1.8407   0.0000   0.0000   0.0000   0.2160
  -5.000  -0.4270   0.03223   0.02492  -0.0364  1.0001  0.0618  -2.6724   0.0000   0.0000   0.0000   0.1620
  -4.000  -0.3285   0.02204   0.01285  -0.0324  1.0001  0.0651  -2.5068   0.0000   0.0000   0.0000   0.1484
  -3.000  -0.2272   0.01584   0.00671  -0.0289  1.0001  0.1269  -2.0871   0.0000   0.0000   0.0000   0.1200
  -2.000  -0.1156   0.01135   0.00512  -0.0252  1.0001  0.9999  -1.3587   0.0000   0.0000   0.0000   0.0284
  -1.000  -0.0263   0.01152   0.00444  -0.0219  1.0001  0.9999  -0.7343   0.0000   0.0000   0.0000  -0.5914
   0.000   0.0687   0.01215   0.00464  -0.0203  1.0001  0.9999  -0.3254   0.0000   0.0000   0.0000   0.5446
   1.000   0.1617   0.01343   0.00580  -0.0197  1.0001  0.9999  -0.4333   0.0000   0.0000   0.0000   0.3702
   2.000   0.3902   0.01392   0.00663  -0.0433  0.9321  0.9999  -0.7249   0.0000   0.0000   0.0000   0.3589
   3.000   0.5389   0.01273   0.00584  -0.0445  0.8097  0.9999  -1.1045   0.0000   0.0000   0.0000   0.3302
   4.000   0.6359   0.01341   0.00599  -0.0361  0.5814  0.9999  -1.6534   0.0000   0.0000   0.0000   0.3037
   5.000   0.7251   0.01648   0.00789  -0.0303  0.3100  0.9999  -2.3957   0.0000   0.0000   0.0000   0.2878
   6.000   0.8135   0.02159   0.01214  -0.0260  0.1277  0.9999  -3.2384   0.0000   0.0000   0.0000   0.2771
   7.000   0.9084   0.02929   0.02028  -0.0219  0.0681  0.9999  -3.9539   0.0000   0.0000   0.0000   0.2683
   8.000   0.9837   0.04172   0.03425  -0.0165  0.0534  0.9999  -4.4281   0.0000   0.0000   0.0000   0.2602
   9.000   0.9669   0.06378   0.05862  -0.0103  0.0580  0.9999  -3.9945   0.0000   0.0000   0.0000   0.2536
  10.000   0.9098   0.08532   0.08063  -0.0133  0.0630  0.9999  -3.6709   0.0000   0.0000   0.0000   0.2568
  11.000   0.8148   0.13383   0.12902  -0.0522  0.1228  0.9999  -2.1686   0.0000   0.0000   0.0000   0.3065
  12.000   0.8175   0.15238   0.14750  -0.0594  0.1107  0.9999  -2.0707   0.0000   0.0000   0.0000   0.3142
  13.000   0.8283   0.16961   0.16470  -0.0665  0.0972  0.9999  -1.9918   0.0000   0.0000   0.0000   0.3209
  14.000   0.8459   0.18593   0.18098  -0.0737  0.0843  0.9999  -1.9337   0.0000   0.0000   0.0000   0.3268
  15.000   0.8809   0.20451   0.19957  -0.0778  0.0757  0.9999  -2.0758   0.0000   0.0000   0.0000   0.3268
  16.000   0.9027   0.21801   0.21306  -0.0874  0.0652  0.9999  -2.0485   0.0000   0.0000   0.0000   0.3341
  17.000   0.9268   0.23270   0.22772  -0.0986  0.0573  0.9999  -1.9386   0.0000   0.0000   0.0000   0.3424
  18.000   0.9725   0.25523   0.25031  -0.1012  0.0514  0.9999  -2.1432   0.0000   0.0000   0.0000   0.3387
  19.000   0.9925   0.26254   0.25755  -0.1169  0.0465  0.9999  -1.8791   0.0000   0.0000   0.0000   0.3509
  20.000   1.0305   0.27916   0.27427  -0.1228  0.0408  0.9999  -2.0506   0.0000   0.0000   0.0000   0.3507
  21.000   1.0611   0.29150   0.28656  -0.1355  0.0382  0.9999  -1.9599   0.0000   0.0000   0.0000   0.3576
  22.000   1.0958   0.30485   0.29995  -0.1457  0.0328  0.9999  -2.0001   0.0000   0.0000   0.0000   0.3611
  23.000   1.1368   0.33236   0.32754  -0.1491  0.0297  0.9999  -2.2925   0.0000   0.0000   0.0000   0.3574
  24.000   1.1632   0.33361   0.32879  -0.1651  0.0289  0.9999  -2.0645   0.0000   0.0000   0.0000   0.3661
  25.000   1.1973   0.34526   0.34049  -0.1770  0.0256  0.9999  -1.9797   0.0000   0.0000   0.0000   0.3699
  26.000   1.2295   0.35790   0.35319  -0.1872  0.0226  0.9999  -2.0120   0.0000   0.0000   0.0000   0.3720
  27.000   1.2609   0.38050   0.37585  -0.1938  0.0209  0.9999  -2.1848   0.0000   0.0000   0.0000   0.3712
  28.000   1.2906   0.38332   0.37873  -0.2089  0.0201  0.9999  -2.0918   0.0000   0.0000   0.0000   0.3768
  29.000   1.3211   0.39451   0.38999  -0.2208  0.0182  0.9999  -2.1085   0.0000   0.0000   0.0000   0.3794
  30.000   1.3490   0.40580   0.40135  -0.2320  0.0165  0.9999  -2.1652   0.0000   0.0000   0.0000   0.3815


