xflr5 v6.61

 Calculated polar for: SJ4_7_45

 1 1 Reynolds number fixed          Mach number fixed         

 xtrf =   1.000 (top)        1.000 (bottom)
 Mach =   0.200     Re =     0.060 e 6     Ncrit =   9.000

  alpha     CL        CD       CDp       Cm    Top Xtr Bot Xtr   Cpmin    Chinge    XCp    
 ------- -------- --------- --------- -------- ------- ------- -------- --------- ---------
 -26.000  -1.0540   0.34002   0.33336   0.1364  1.0001  0.0316  -1.8339   0.0000   0.0000   0.0000   0.3564
 -25.000  -1.0210   0.32715   0.32039   0.1270  1.0001  0.0346  -1.7477   0.0000   0.0000   0.0000   0.3533
 -24.000  -0.9868   0.31569   0.30887   0.1168  1.0001  0.0386  -1.7071   0.0000   0.0000   0.0000   0.3490
 -23.000  -0.9541   0.31078   0.30394   0.1042  1.0001  0.0409  -1.7521   0.0000   0.0000   0.0000   0.3417
 -22.000  -0.9180   0.29300   0.28612   0.0959  1.0001  0.0425  -1.6972   0.0000   0.0000   0.0000   0.3384
 -21.000  -0.8811   0.27800   0.27107   0.0883  1.0001  0.0470  -1.6274   0.0000   0.0000   0.0000   0.3355
 -20.000  -0.8459   0.26691   0.25996   0.0783  1.0001  0.0522  -1.6593   0.0000   0.0000   0.0000   0.3292
 -19.000  -0.8188   0.26143   0.25457   0.0662  1.0001  0.0539  -1.7809   0.0000   0.0000   0.0000   0.3190
 -18.000  -0.7742   0.23914   0.23216   0.0621  1.0001  0.0618  -1.5904   0.0000   0.0000   0.0000   0.3192
 -17.000  -0.7569   0.23734   0.23046   0.0492  1.0001  0.0665  -1.7377   0.0000   0.0000   0.0000   0.3054
 -16.000  -0.7064   0.21227   0.20536   0.0464  1.0001  0.0751  -1.5102   0.0000   0.0000   0.0000   0.3068
 -15.000  -0.6817   0.20074   0.19388   0.0373  1.0001  0.0811  -1.5845   0.0000   0.0000   0.0000   0.2968
 -14.000  -0.6530   0.18732   0.18048   0.0309  1.0001  0.0924  -1.5961   0.0000   0.0000   0.0000   0.2903
 -13.000  -0.6204   0.17088   0.16409   0.0264  1.0001  0.1030  -1.5653   0.0000   0.0000   0.0000   0.2861
 -12.000  -0.5999   0.15722   0.15052   0.0206  1.0001  0.1180  -1.5827   0.0000   0.0000   0.0000   0.2787
 -11.000  -0.5904   0.14455   0.13794   0.0139  1.0001  0.1338  -1.6369   0.0000   0.0000   0.0000   0.2687
 -10.000  -0.5688   0.12845   0.12195   0.0102  1.0001  0.1509  -1.6048   0.0000   0.0000   0.0000   0.2637
  -9.000  -0.5622   0.11520   0.10888   0.0048  1.0001  0.1756  -1.6184   0.0000   0.0000   0.0000   0.2550
  -8.000  -0.5619   0.10155   0.09548  -0.0006  1.0001  0.2043  -1.6528   0.0000   0.0000   0.0000   0.2460
  -7.000  -0.5301   0.08597   0.08002   0.0018  1.0001  0.2522  -1.5985   0.0000   0.0000   0.0000   0.2508
  -6.000  -0.5133   0.07222   0.06648   0.0002  1.0001  0.3203  -1.5947   0.0000   0.0000   0.0000   0.2483
  -5.000  -0.4335   0.03831   0.03009  -0.0365  1.0001  0.1006  -2.4293   0.0000   0.0000   0.0000   0.1632
  -4.000  -0.3333   0.02645   0.01603  -0.0339  1.0001  0.1065  -2.3270   0.0000   0.0000   0.0000   0.1455
  -3.000  -0.2307   0.01856   0.00855  -0.0296  1.0001  0.2418  -2.0376   0.0000   0.0000   0.0000   0.1190
  -2.000  -0.1138   0.01430   0.00611  -0.0254  1.0001  0.9999  -1.3095   0.0000   0.0000   0.0000   0.0231
  -1.000  -0.0280   0.01438   0.00516  -0.0216  1.0001  0.9999  -0.7238   0.0000   0.0000   0.0000  -0.5282
   0.000   0.0636   0.01493   0.00517  -0.0193  1.0001  0.9999  -0.3232   0.0000   0.0000   0.0000   0.5521
   1.000   0.1545   0.01606   0.00613  -0.0180  1.0001  0.9999  -0.4285   0.0000   0.0000   0.0000   0.3644
   2.000   0.2390   0.01823   0.00843  -0.0181  1.0001  0.9999  -0.5583   0.0000   0.0000   0.0000   0.3232
   3.000   0.4941   0.01968   0.01088  -0.0468  0.8920  0.9999  -0.9859   0.0000   0.0000   0.0000   0.3421
   4.000   0.6420   0.01773   0.00945  -0.0414  0.6920  0.9999  -1.6123   0.0000   0.0000   0.0000   0.3114
   5.000   0.7268   0.02056   0.01114  -0.0301  0.4002  0.9999  -2.3077   0.0000   0.0000   0.0000   0.2876
   6.000   0.8136   0.02682   0.01647  -0.0239  0.1877  0.9999  -3.0477   0.0000   0.0000   0.0000   0.2747
   7.000   0.9049   0.03701   0.02739  -0.0192  0.1102  0.9999  -3.5741   0.0000   0.0000   0.0000   0.2657
   8.000   0.9591   0.05278   0.04514  -0.0137  0.0922  0.9999  -3.7949   0.0000   0.0000   0.0000   0.2581
   9.000   0.9264   0.07607   0.06995  -0.0128  0.0997  0.9999  -3.4216   0.0000   0.0000   0.0000   0.2573
  10.000   0.6649   0.10968   0.10373  -0.0311  0.1921  0.9999  -1.8488   0.0000   0.0000   0.0000   0.2911
  11.000   0.6289   0.13064   0.12462  -0.0399  0.2335  0.9999  -1.5417   0.0000   0.0000   0.0000   0.3075
  12.000   0.6264   0.14407   0.13806  -0.0415  0.2075  0.9999  -1.5001   0.0000   0.0000   0.0000   0.3097
  13.000   0.6310   0.15625   0.15028  -0.0423  0.1825  0.9999  -1.4925   0.0000   0.0000   0.0000   0.3100
  14.000   0.6219   0.16488   0.15892  -0.0455  0.1614  0.9999  -1.3997   0.0000   0.0000   0.0000   0.3155
  15.000   0.6406   0.17864   0.17275  -0.0477  0.1418  0.9999  -1.3977   0.0000   0.0000   0.0000   0.3161
  16.000   0.6443   0.18875   0.18288  -0.0520  0.1277  0.9999  -1.3192   0.0000   0.0000   0.0000   0.3216
  17.000   0.6521   0.19930   0.19346  -0.0565  0.1134  0.9999  -1.2958   0.0000   0.0000   0.0000   0.3267
  18.000   0.6670   0.21186   0.20607  -0.0605  0.1011  0.9999  -1.2968   0.0000   0.0000   0.0000   0.3298
  19.000   0.6943   0.22957   0.22389  -0.0634  0.0891  0.9999  -1.3582   0.0000   0.0000   0.0000   0.3294
  20.000   0.6893   0.23450   0.22884  -0.0706  0.0814  0.9999  -1.1913   0.0000   0.0000   0.0000   0.3394
  21.000   0.7038   0.24761   0.24200  -0.0752  0.0740  0.9999  -1.1504   0.0000   0.0000   0.0000   0.3426
  22.000   0.7195   0.26084   0.25533  -0.0796  0.0653  0.9999  -1.1835   0.0000   0.0000   0.0000   0.3452
  23.000   0.7304   0.27368   0.26825  -0.0851  0.0618  0.9999  -1.1524   0.0000   0.0000   0.0000   0.3497
  24.000   0.7428   0.28641   0.28108  -0.0904  0.0550  0.9999  -1.1402   0.0000   0.0000   0.0000   0.3533
  25.000   0.7588   0.30315   0.29789  -0.0945  0.0511  0.9999  -1.1718   0.0000   0.0000   0.0000   0.3546
  26.000   0.7659   0.31370   0.30856  -0.1008  0.0463  0.9999  -1.0716   0.0000   0.0000   0.0000   0.3601
  27.000   0.7781   0.32814   0.32313  -0.1055  0.0416  0.9999  -1.0722   0.0000   0.0000   0.0000   0.3622
  28.000   0.7901   0.34532   0.34038  -0.1100  0.0397  0.9999  -1.0689   0.0000   0.0000   0.0000   0.3641
  29.000   0.7958   0.35615   0.35132  -0.1164  0.0374  0.9999  -1.0196   0.0000   0.0000   0.0000   0.3691
  30.000   0.8039   0.37017   0.36548  -0.1217  0.0336  0.9999  -1.0280   0.0000   0.0000   0.0000   0.3720


