xflr5 v6.61

 Calculated polar for: SJ4_7_45

 1 1 Reynolds number fixed          Mach number fixed         

 xtrf =   1.000 (top)        1.000 (bottom)
 Mach =   0.200     Re =     0.500 e 6     Ncrit =   9.000

  alpha     CL        CD       CDp       Cm    Top Xtr Bot Xtr   Cpmin    Chinge    XCp    
 ------- -------- --------- --------- -------- ------- ------- -------- --------- ---------
 -14.000  -0.6557   0.17779   0.17537   0.0367  1.0001  0.0104  -1.8181   0.0000   0.0000   0.0000   0.2984
 -13.000  -0.6293   0.16325   0.16085   0.0305  1.0001  0.0115  -1.7933   0.0000   0.0000   0.0000   0.2916
 -12.000  -0.6072   0.14737   0.14499   0.0230  1.0001  0.0136  -1.9862   0.0000   0.0000   0.0000   0.2818
 -11.000  -0.4529   0.11852   0.11631  -0.0003  1.0001  0.0160  -1.8019   0.0000   0.0000   0.0000   0.2453
 -10.000  -0.4488   0.10346   0.10127  -0.0047  1.0001  0.0191  -1.8475   0.0000   0.0000   0.0000   0.2358
  -5.000  -0.4314   0.01723   0.01175  -0.0313  1.0001  0.0148  -3.8985   0.0000   0.0000   0.0000   0.1740
  -4.000  -0.3345   0.01250   0.00647  -0.0280  1.0001  0.0182  -3.1219   0.0000   0.0000   0.0000   0.1632
  -3.000  -0.2063   0.00971   0.00336  -0.0308  0.9960  0.0315  -2.2151   0.0000   0.0000   0.0000   0.0973
  -2.000  -0.0531   0.00705   0.00228  -0.0405  0.9852  0.4549  -1.2200   0.0000   0.0000   0.0000  -0.5200
  -1.000   0.0747   0.00543   0.00215  -0.0420  0.9636  0.9311  -0.4838   0.0000   0.0000   0.0000   0.8140
   0.000   0.2071   0.00516   0.00173  -0.0444  0.9201  0.9999  -0.4152   0.0000   0.0000   0.0000   0.4639
   1.000   0.3083   0.00516   0.00141  -0.0405  0.8306  0.9999  -0.5634   0.0000   0.0000   0.0000   0.3799
   2.000   0.4144   0.00585   0.00144  -0.0380  0.6709  0.9999  -0.7778   0.0000   0.0000   0.0000   0.3398
   3.000   0.5225   0.00707   0.00188  -0.0368  0.4724  0.9999  -1.1081   0.0000   0.0000   0.0000   0.3179
   4.000   0.6313   0.00858   0.00268  -0.0362  0.2821  0.9999  -1.7023   0.0000   0.0000   0.0000   0.3041
   5.000   0.7392   0.01038   0.00388  -0.0355  0.1277  0.9999  -2.6138   0.0000   0.0000   0.0000   0.2940
   6.000   0.8449   0.01265   0.00585  -0.0342  0.0398  0.9999  -3.7264   0.0000   0.0000   0.0000   0.2856
   7.000   0.9455   0.01582   0.00932  -0.0316  0.0189  0.9999  -4.9622   0.0000   0.0000   0.0000   0.2774
   8.000   1.0332   0.02139   0.01553  -0.0271  0.0134  0.9999  -6.0625   0.0000   0.0000   0.0000   0.2691
   9.000   1.1111   0.02791   0.02289  -0.0221  0.0104  0.9999  -7.1466   0.0000   0.0000   0.0000   0.2616
  10.000   1.0504   0.02943   0.02586  -0.0047  0.0098  0.9999  -7.1605   0.0000   0.0000   0.0000   0.2455
  11.000   0.9708   0.04625   0.04349  -0.0010  0.0099  0.9999  -6.9137   0.0000   0.0000   0.0000   0.2409
  12.000   0.8747   0.07992   0.07778  -0.0176  0.0105  0.9999  -6.0548   0.0000   0.0000   0.0000   0.2590
  13.000   0.7092   0.13073   0.12871  -0.0379  0.0136  0.9999  -3.2520   0.0000   0.0000   0.0000   0.2939


