xflr5 v6.61

 Calculated polar for: SJ4_11_06

 1 1 Reynolds number fixed          Mach number fixed         

 xtrf =   1.000 (top)        1.000 (bottom)
 Mach =   0.200     Re =     0.100 e 6     Ncrit =   9.000

  alpha     CL        CD       CDp       Cm    Top Xtr Bot Xtr   Cpmin    Chinge    XCp    
 ------- -------- --------- --------- -------- ------- ------- -------- --------- ---------
 -27.000  -1.0203   0.33894   0.33349   0.1298  1.0001  0.0284  -1.8191   0.0000   0.0000   0.0000   0.3445
 -26.000  -0.9866   0.32771   0.32222   0.1192  1.0001  0.0312  -1.8100   0.0000   0.0000   0.0000   0.3403
 -25.000  -0.9533   0.31695   0.31144   0.1074  1.0001  0.0328  -1.8767   0.0000   0.0000   0.0000   0.3342
 -24.000  -0.9175   0.30378   0.29822   0.0990  1.0001  0.0356  -1.7508   0.0000   0.0000   0.0000   0.3315
 -23.000  -0.8832   0.29361   0.28801   0.0873  1.0001  0.0390  -1.7916   0.0000   0.0000   0.0000   0.3242
 -22.000  -0.8464   0.27899   0.27339   0.0791  1.0001  0.0410  -1.7348   0.0000   0.0000   0.0000   0.3205
 -21.000  -0.8103   0.26708   0.26144   0.0695  1.0001  0.0464  -1.7176   0.0000   0.0000   0.0000   0.3145
 -20.000  -0.7756   0.25380   0.24818   0.0599  1.0001  0.0486  -1.7241   0.0000   0.0000   0.0000   0.3075
 -19.000  -0.7376   0.24047   0.23483   0.0524  1.0001  0.0541  -1.6268   0.0000   0.0000   0.0000   0.3026
 -18.000  -0.7062   0.22745   0.22185   0.0424  1.0001  0.0582  -1.7045   0.0000   0.0000   0.0000   0.2930
 -17.000  -0.6700   0.21423   0.20861   0.0352  1.0001  0.0662  -1.6496   0.0000   0.0000   0.0000   0.2867
 -16.000  -0.6377   0.19964   0.19406   0.0277  1.0001  0.0706  -1.6361   0.0000   0.0000   0.0000   0.2788
 -15.000  -0.6224   0.18937   0.18384   0.0173  1.0001  0.0794  -1.7343   0.0000   0.0000   0.0000   0.2645
 -14.000  -0.5787   0.17189   0.16636   0.0144  1.0001  0.0888  -1.6182   0.0000   0.0000   0.0000   0.2624
 -13.000  -0.5578   0.15709   0.15162   0.0079  1.0001  0.0967  -1.6605   0.0000   0.0000   0.0000   0.2525
 -12.000  -0.5590   0.14270   0.13735  -0.0017  1.0001  0.1074  -1.8135   0.0000   0.0000   0.0000   0.2364
 -11.000  -0.5427   0.12710   0.12182  -0.0067  1.0001  0.1219  -1.8013   0.0000   0.0000   0.0000   0.2281
 -10.000  -0.5393   0.11104   0.10588  -0.0134  1.0001  0.1362  -1.8915   0.0000   0.0000   0.0000   0.2166
  -9.000  -0.6083   0.07154   0.06646  -0.0408  1.0001  0.0778  -2.8876   0.0000   0.0000   0.0000   0.1748
  -8.000  -0.6902   0.04601   0.03939  -0.0416  1.0001  0.0674  -3.6148   0.0000   0.0000   0.0000   0.1824
  -7.000  -0.6501   0.03405   0.02636  -0.0345  1.0001  0.0748  -3.4248   0.0000   0.0000   0.0000   0.1902
  -6.000  -0.5764   0.02559   0.01657  -0.0281  1.0001  0.0941  -3.0859   0.0000   0.0000   0.0000   0.1949
  -5.000  -0.4881   0.02097   0.01185  -0.0236  1.0001  0.1466  -2.5815   0.0000   0.0000   0.0000   0.1960
  -4.000  -0.3954   0.01786   0.00914  -0.0202  1.0001  0.2536  -2.0045   0.0000   0.0000   0.0000   0.1937
  -3.000  -0.2990   0.01571   0.00801  -0.0177  1.0001  0.4597  -1.4538   0.0000   0.0000   0.0000   0.1859
  -2.000  -0.2172   0.01468   0.00839  -0.0097  1.0001  0.7855  -1.0133   0.0000   0.0000   0.0000   0.2009
  -1.000  -0.1091   0.01545   0.00895  -0.0097  1.0001  0.9999  -0.6951   0.0000   0.0000   0.0000   0.1560
   0.000   0.1087   0.01645   0.00944  -0.0326  0.9551  0.9999  -0.4764   0.0000   0.0000   0.0000   0.5495
   1.000   0.3219   0.01574   0.00866  -0.0508  0.8976  0.9999  -0.6870   0.0000   0.0000   0.0000   0.4056
   2.000   0.4534   0.01438   0.00727  -0.0499  0.8098  0.9999  -0.8888   0.0000   0.0000   0.0000   0.3570
   3.000   0.5547   0.01416   0.00666  -0.0434  0.6876  0.9999  -1.1056   0.0000   0.0000   0.0000   0.3243
   4.000   0.6502   0.01531   0.00717  -0.0375  0.5494  0.9999  -1.3652   0.0000   0.0000   0.0000   0.3030
   5.000   0.7448   0.01724   0.00854  -0.0329  0.4205  0.9999  -1.6812   0.0000   0.0000   0.0000   0.2885
   6.000   0.8391   0.01980   0.01065  -0.0289  0.3145  0.9999  -2.0877   0.0000   0.0000   0.0000   0.2778
   7.000   0.9320   0.02299   0.01373  -0.0251  0.2316  0.9999  -2.6091   0.0000   0.0000   0.0000   0.2693
   8.000   1.0221   0.02708   0.01791  -0.0212  0.1713  0.9999  -3.2111   0.0000   0.0000   0.0000   0.2619
   9.000   1.1047   0.03241   0.02360  -0.0166  0.1275  0.9999  -3.8431   0.0000   0.0000   0.0000   0.2550
  10.000   1.1719   0.03935   0.03112  -0.0108  0.0974  0.9999  -4.4555   0.0000   0.0000   0.0000   0.2479
  11.000   1.1946   0.04994   0.04280  -0.0021  0.0812  0.9999  -4.8098   0.0000   0.0000   0.0000   0.2391
  12.000   1.1171   0.06502   0.05920   0.0075  0.0768  0.9999  -4.6598   0.0000   0.0000   0.0000   0.2292
  13.000   0.9489   0.10592   0.10086  -0.0155  0.0841  0.9999  -3.6701   0.0000   0.0000   0.0000   0.2510
  14.000   0.5814   0.15152   0.14649  -0.0306  0.1559  0.9999  -1.3634   0.0000   0.0000   0.0000   0.2918
  15.000   0.5953   0.16276   0.15783  -0.0329  0.1377  0.9999  -1.4006   0.0000   0.0000   0.0000   0.2937
  18.000   0.6173   0.19625   0.19150  -0.0463  0.0974  0.9999  -1.2980   0.0000   0.0000   0.0000   0.3110
  19.000   0.6247   0.20761   0.20292  -0.0518  0.0869  0.9999  -1.2434   0.0000   0.0000   0.0000   0.3181
  20.000   0.6371   0.21978   0.21514  -0.0568  0.0796  0.9999  -1.2107   0.0000   0.0000   0.0000   0.3233
  21.000   0.6678   0.23614   0.23159  -0.0591  0.0711  0.9999  -1.3297   0.0000   0.0000   0.0000   0.3213
  22.000   0.6650   0.24393   0.23943  -0.0667  0.0634  0.9999  -1.1853   0.0000   0.0000   0.0000   0.3321
  23.000   0.6784   0.25695   0.25251  -0.0718  0.0588  0.9999  -1.1605   0.0000   0.0000   0.0000   0.3363
  24.000   0.6934   0.26947   0.26512  -0.0767  0.0520  0.9999  -1.1716   0.0000   0.0000   0.0000   0.3394
  25.000   0.7033   0.28258   0.27829  -0.0826  0.0479  0.9999  -1.1189   0.0000   0.0000   0.0000   0.3449
  26.000   0.7188   0.29595   0.29176  -0.0870  0.0429  0.9999  -1.1679   0.0000   0.0000   0.0000   0.3467
  27.000   0.7270   0.30928   0.30515  -0.0932  0.0401  0.9999  -1.0731   0.0000   0.0000   0.0000   0.3523
  28.000   0.7396   0.32263   0.31861  -0.0980  0.0355  0.9999  -1.1290   0.0000   0.0000   0.0000   0.3545
  29.000   0.7478   0.33654   0.33258  -0.1038  0.0338  0.9999  -1.0716   0.0000   0.0000   0.0000   0.3590
  30.000   0.7571   0.34996   0.34610  -0.1092  0.0300  0.9999  -1.0563   0.0000   0.0000   0.0000   0.3622


