xflr5 v6.61

 Calculated polar for: SJ4_11_06

 1 1 Reynolds number fixed          Mach number fixed         

 xtrf =   1.000 (top)        1.000 (bottom)
 Mach =   0.200     Re =     0.050 e 6     Ncrit =   9.000

  alpha     CL        CD       CDp       Cm    Top Xtr Bot Xtr   Cpmin    Chinge    XCp    
 ------- -------- --------- --------- -------- ------- ------- -------- --------- ---------
 -19.000  -0.7360   0.24386   0.23592   0.0509  1.0001  0.1030  -1.5700   0.0000   0.0000   0.0000   0.3011
 -18.000  -0.7010   0.23056   0.22265   0.0430  1.0001  0.1110  -1.5617   0.0000   0.0000   0.0000   0.2945
 -17.000  -0.6715   0.21913   0.21125   0.0344  1.0001  0.1224  -1.5724   0.0000   0.0000   0.0000   0.2858
 -16.000  -0.6542   0.21199   0.20419   0.0255  1.0001  0.1348  -1.6118   0.0000   0.0000   0.0000   0.2750
 -15.000  -0.6204   0.19638   0.18861   0.0199  1.0001  0.1494  -1.5852   0.0000   0.0000   0.0000   0.2690
 -14.000  -0.5835   0.17924   0.17151   0.0153  1.0001  0.1664  -1.5465   0.0000   0.0000   0.0000   0.2641
 -13.000  -0.5495   0.16388   0.15616   0.0115  1.0001  0.1854  -1.5012   0.0000   0.0000   0.0000   0.2595
 -12.000  -0.5470   0.15336   0.14577   0.0058  1.0001  0.2101  -1.5526   0.0000   0.0000   0.0000   0.2505
 -11.000  -0.5098   0.13647   0.12893   0.0041  1.0001  0.2377  -1.5144   0.0000   0.0000   0.0000   0.2485
 -10.000  -0.5084   0.12403   0.11663   0.0010  1.0001  0.2722  -1.5673   0.0000   0.0000   0.0000   0.2435
  -9.000  -0.4758   0.10803   0.10070   0.0009  1.0001  0.3108  -1.5225   0.0000   0.0000   0.0000   0.2441
  -8.000  -0.6028   0.07216   0.06504  -0.0350  1.0001  0.1490  -2.5254   0.0000   0.0000   0.0000   0.1855
  -7.000  -0.6124   0.05230   0.04447  -0.0350  1.0001  0.1443  -2.7126   0.0000   0.0000   0.0000   0.1869
  -6.000  -0.5734   0.03759   0.02797  -0.0304  1.0001  0.1639  -2.6995   0.0000   0.0000   0.0000   0.1913
  -5.000  -0.4932   0.02939   0.01917  -0.0251  1.0001  0.2283  -2.3629   0.0000   0.0000   0.0000   0.1939
  -4.000  -0.4049   0.02423   0.01426  -0.0196  1.0001  0.3583  -1.9038   0.0000   0.0000   0.0000   0.1966
  -3.000  -0.3220   0.02080   0.01191  -0.0112  1.0001  0.6011  -1.4353   0.0000   0.0000   0.0000   0.2108
  -2.000  -0.0809   0.02060   0.01172  -0.0254  1.0001  0.9999  -0.7606   0.0000   0.0000   0.0000  -0.0741
  -1.000  -0.0924   0.01961   0.01019  -0.0114  1.0001  0.9999  -0.6679   0.0000   0.0000   0.0000   0.1214
   0.000  -0.0300   0.02079   0.01082  -0.0075  1.0001  0.9999  -0.5044   0.0000   0.0000   0.0000  -0.0023
   1.000   0.0387   0.02328   0.01305  -0.0067  1.0001  0.9999  -0.4621   0.0000   0.0000   0.0000   0.4149
   2.000   0.2847   0.02683   0.01668  -0.0361  0.9054  0.9999  -0.6964   0.0000   0.0000   0.0000   0.3729
   3.000   0.5053   0.02585   0.01618  -0.0504  0.7935  0.9999  -1.0002   0.0000   0.0000   0.0000   0.3459
   4.000   0.6465   0.02427   0.01472  -0.0458  0.6672  0.9999  -1.3039   0.0000   0.0000   0.0000   0.3163
   5.000   0.7483   0.02562   0.01572  -0.0377  0.5312  0.9999  -1.6168   0.0000   0.0000   0.0000   0.2950
   6.000   0.8422   0.02897   0.01875  -0.0312  0.4110  0.9999  -1.9900   0.0000   0.0000   0.0000   0.2808
   7.000   0.9315   0.03399   0.02377  -0.0257  0.3166  0.9999  -2.4437   0.0000   0.0000   0.0000   0.2703
   8.000   1.0042   0.04155   0.03199  -0.0197  0.2482  0.9999  -2.8829   0.0000   0.0000   0.0000   0.2614
   9.000   1.0470   0.05251   0.04391  -0.0128  0.2036  0.9999  -3.2172   0.0000   0.0000   0.0000   0.2530
  10.000   0.9859   0.07153   0.06401  -0.0062  0.1891  0.9999  -3.0822   0.0000   0.0000   0.0000   0.2461
  13.000   0.7670   0.16838   0.16073  -0.0575  0.2839  0.9999  -1.6744   0.0000   0.0000   0.0000   0.3127
  14.000   0.7802   0.18225   0.17463  -0.0619  0.2523  0.9999  -1.6822   0.0000   0.0000   0.0000   0.3158
  15.000   0.8125   0.19861   0.19108  -0.0662  0.2229  0.9999  -1.7438   0.0000   0.0000   0.0000   0.3167
  16.000   0.8297   0.21028   0.20276  -0.0734  0.1968  0.9999  -1.7354   0.0000   0.0000   0.0000   0.3222
  17.000   0.8624   0.22604   0.21855  -0.0799  0.1773  0.9999  -1.7748   0.0000   0.0000   0.0000   0.3249
  18.000   0.8884   0.23825   0.23079  -0.0887  0.1584  0.9999  -1.7629   0.0000   0.0000   0.0000   0.3305
  19.000   0.9215   0.25212   0.24469  -0.0969  0.1426  0.9999  -1.7969   0.0000   0.0000   0.0000   0.3342
  20.000   0.9554   0.26573   0.25835  -0.1055  0.1280  0.9999  -1.8164   0.0000   0.0000   0.0000   0.3376
  21.000   0.9896   0.27954   0.27220  -0.1146  0.1175  0.9999  -1.8427   0.0000   0.0000   0.0000   0.3411
  22.000   1.0262   0.29465   0.28738  -0.1229  0.1069  0.9999  -1.9042   0.0000   0.0000   0.0000   0.3431
  23.000   1.0643   0.31059   0.30343  -0.1308  0.0960  0.9999  -1.9735   0.0000   0.0000   0.0000   0.3443
  24.000   1.0919   0.31837   0.31123  -0.1437  0.0878  0.9999  -1.9249   0.0000   0.0000   0.0000   0.3506
  25.000   1.1276   0.33458   0.32750  -0.1523  0.0821  0.9999  -2.0059   0.0000   0.0000   0.0000   0.3518
  26.000   1.1586   0.34370   0.33670  -0.1640  0.0739  0.9999  -2.0017   0.0000   0.0000   0.0000   0.3558
  27.000   1.1902   0.35637   0.34943  -0.1748  0.0694  0.9999  -2.0061   0.0000   0.0000   0.0000   0.3585
  28.000   1.2214   0.36749   0.36065  -0.1857  0.0628  0.9999  -2.0617   0.0000   0.0000   0.0000   0.3609
  29.000   1.2515   0.38103   0.37428  -0.1961  0.0596  0.9999  -2.1127   0.0000   0.0000   0.0000   0.3628
  30.000   1.2798   0.38959   0.38294  -0.2085  0.0537  0.9999  -2.1089   0.0000   0.0000   0.0000   0.3659


