xflr5 v6.61

 Calculated polar for: SJ4_11_06

 1 1 Reynolds number fixed          Mach number fixed         

 xtrf =   1.000 (top)        1.000 (bottom)
 Mach =   0.200     Re =     0.500 e 6     Ncrit =   9.000

  alpha     CL        CD       CDp       Cm    Top Xtr Bot Xtr   Cpmin    Chinge    XCp    
 ------- -------- --------- --------- -------- ------- ------- -------- --------- ---------
 -28.000  -1.0617   0.35238   0.34997   0.1456  1.0001  0.0067  -2.0788   0.0000   0.0000   0.0000   0.3517
 -27.000  -1.0301   0.34171   0.33927   0.1351  1.0001  0.0073  -1.9490   0.0000   0.0000   0.0000   0.3482
 -26.000  -0.9963   0.32954   0.32708   0.1245  1.0001  0.0084  -1.9414   0.0000   0.0000   0.0000   0.3442
 -25.000  -0.9614   0.31567   0.31321   0.1127  1.0001  0.0087  -2.1738   0.0000   0.0000   0.0000   0.3382
 -24.000  -0.9275   0.30456   0.30207   0.1039  1.0001  0.0093  -1.9453   0.0000   0.0000   0.0000   0.3353
 -23.000  -0.8919   0.29208   0.28958   0.0940  1.0001  0.0105  -1.8823   0.0000   0.0000   0.0000   0.3306
 -22.000  -0.8569   0.27686   0.27436   0.0821  1.0001  0.0113  -2.1637   0.0000   0.0000   0.0000   0.3224
 -21.000  -0.8203   0.26538   0.26286   0.0748  1.0001  0.0121  -1.9017   0.0000   0.0000   0.0000   0.3196
 -20.000  -0.7843   0.25091   0.24838   0.0644  1.0001  0.0141  -2.0026   0.0000   0.0000   0.0000   0.3119
 -19.000  -0.7497   0.23664   0.23412   0.0558  1.0001  0.0147  -1.9769   0.0000   0.0000   0.0000   0.3056
 -18.000  -0.7138   0.22371   0.22118   0.0479  1.0001  0.0163  -1.8609   0.0000   0.0000   0.0000   0.2997
 -17.000  -0.6843   0.20706   0.20454   0.0379  1.0001  0.0181  -2.0842   0.0000   0.0000   0.0000   0.2890
 -16.000  -0.4453   0.16277   0.16049   0.0015  1.0001  0.0223  -1.5705   0.0000   0.0000   0.0000   0.2425
 -15.000  -0.4268   0.15385   0.15155  -0.0020  1.0001  0.0245  -1.4695   0.0000   0.0000   0.0000   0.2350
 -14.000  -0.4373   0.14197   0.13967  -0.0077  1.0001  0.0274  -1.8022   0.0000   0.0000   0.0000   0.2218
 -13.000  -0.4283   0.13252   0.13022  -0.0105  1.0001  0.0299  -1.7467   0.0000   0.0000   0.0000   0.2157
 -12.000  -0.7747   0.07698   0.07445  -0.0247  1.0001  0.0169  -5.7867   0.0000   0.0000   0.0000   0.2047
 -11.000  -0.8760   0.04133   0.03795  -0.0544  1.0001  0.0163  -6.8007   0.0000   0.0000   0.0000   0.1764
 -10.000  -0.8892   0.02928   0.02469  -0.0474  1.0001  0.0169  -6.7005   0.0000   0.0000   0.0000   0.1866
  -9.000  -0.8463   0.02223   0.01670  -0.0379  1.0001  0.0182  -6.1119   0.0000   0.0000   0.0000   0.1961
  -8.000  -0.7768   0.01862   0.01270  -0.0305  1.0001  0.0210  -5.3090   0.0000   0.0000   0.0000   0.2027
  -7.000  -0.6968   0.01542   0.00919  -0.0245  1.0001  0.0250  -4.5146   0.0000   0.0000   0.0000   0.2076
  -6.000  -0.5672   0.01298   0.00658  -0.0282  0.9947  0.0378  -3.5254   0.0000   0.0000   0.0000   0.1936
  -5.000  -0.4194   0.01117   0.00488  -0.0354  0.9854  0.0822  -2.5967   0.0000   0.0000   0.0000   0.1591
  -4.000  -0.2681   0.00976   0.00384  -0.0435  0.9748  0.1754  -1.7445   0.0000   0.0000   0.0000   0.0809
  -3.000  -0.1287   0.00848   0.00309  -0.0486  0.9579  0.3217  -1.0850   0.0000   0.0000   0.0000  -0.1370
  -2.000  -0.0211   0.00739   0.00258  -0.0463  0.9245  0.4973  -0.7243   0.0000   0.0000   0.0000  -1.9719
  -1.000   0.0842   0.00636   0.00221  -0.0431  0.8766  0.7077  -0.4886   0.0000   0.0000   0.0000   0.7646
   0.000   0.1807   0.00599   0.00218  -0.0368  0.7997  0.9016  -0.5378   0.0000   0.0000   0.0000   0.4525
   1.000   0.2846   0.00642   0.00219  -0.0326  0.6942  0.9754  -0.6768   0.0000   0.0000   0.0000   0.3618
   2.000   0.4475   0.00722   0.00236  -0.0427  0.5584  0.9994  -0.9036   0.0000   0.0000   0.0000   0.3422
   3.000   0.5474   0.00798   0.00261  -0.0401  0.4415  0.9999  -1.1203   0.0000   0.0000   0.0000   0.3191
   4.000   0.6460   0.00890   0.00311  -0.0371  0.3402  0.9999  -1.3906   0.0000   0.0000   0.0000   0.3024
   5.000   0.7511   0.01004   0.00389  -0.0355  0.2526  0.9999  -1.7385   0.0000   0.0000   0.0000   0.2914
   6.000   0.8583   0.01136   0.00494  -0.0343  0.1809  0.9999  -2.2098   0.0000   0.0000   0.0000   0.2831
   7.000   0.9643   0.01287   0.00630  -0.0328  0.1266  0.9999  -2.8409   0.0000   0.0000   0.0000   0.2762
   8.000   1.0669   0.01465   0.00802  -0.0309  0.0869  0.9999  -3.6028   0.0000   0.0000   0.0000   0.2699
   9.000   1.1634   0.01686   0.01026  -0.0279  0.0591  0.9999  -4.4611   0.0000   0.0000   0.0000   0.2636
  10.000   1.2506   0.01958   0.01314  -0.0237  0.0401  0.9999  -5.3707   0.0000   0.0000   0.0000   0.2572
  11.000   1.3166   0.02333   0.01711  -0.0169  0.0290  0.9999  -6.2766   0.0000   0.0000   0.0000   0.2495
  12.000   1.3479   0.02842   0.02257  -0.0068  0.0234  0.9999  -7.0234   0.0000   0.0000   0.0000   0.2401
  13.000   1.3703   0.03544   0.03012  -0.0005  0.0202  0.9999  -7.7168   0.0000   0.0000   0.0000   0.2336
  14.000   1.3532   0.04888   0.04412  -0.0001  0.0185  0.9999  -8.1132   0.0000   0.0000   0.0000   0.2312
  15.000   1.3229   0.06753   0.06339  -0.0071  0.0171  0.9999  -8.3392   0.0000   0.0000   0.0000   0.2344
  16.000   1.2710   0.09141   0.08776  -0.0184  0.0164  0.9999  -8.2842   0.0000   0.0000   0.0000   0.2414
  17.000   1.2124   0.11811   0.11489  -0.0319  0.0159  0.9999  -8.0282   0.0000   0.0000   0.0000   0.2514
  18.000   1.1531   0.14735   0.14455  -0.0482  0.0156  0.9999  -7.5468   0.0000   0.0000   0.0000   0.2653
  20.000   0.6668   0.21100   0.20896  -0.0583  0.0238  0.9999  -1.7373   0.0000   0.0000   0.0000   0.3198
  21.000   0.6684   0.22679   0.22476  -0.0655  0.0202  0.9999  -1.4744   0.0000   0.0000   0.0000   0.3299
  22.000   0.6871   0.23790   0.23590  -0.0692  0.0190  0.9999  -1.6274   0.0000   0.0000   0.0000   0.3309
  23.000   0.6932   0.25232   0.25035  -0.0761  0.0158  0.9999  -1.4135   0.0000   0.0000   0.0000   0.3391
  24.000   0.7032   0.26690   0.26496  -0.0818  0.0142  0.9999  -1.3070   0.0000   0.0000   0.0000   0.3445
  25.000   0.7172   0.27874   0.27683  -0.0868  0.0125  0.9999  -1.3907   0.0000   0.0000   0.0000   0.3474
  26.000   0.7267   0.29398   0.29210  -0.0926  0.0110  0.9999  -1.2232   0.0000   0.0000   0.0000   0.3525
  27.000   0.7391   0.30598   0.30415  -0.0977  0.0097  0.9999  -1.3302   0.0000   0.0000   0.0000   0.3552
  28.000   0.7479   0.32157   0.31976  -0.1033  0.0089  0.9999  -1.1954   0.0000   0.0000   0.0000   0.3596
  29.000   0.7580   0.33444   0.33268  -0.1086  0.0075  0.9999  -1.2324   0.0000   0.0000   0.0000   0.3626
  30.000   0.7662   0.34881   0.34709  -0.1140  0.0071  0.9999  -1.1629   0.0000   0.0000   0.0000   0.3659


