xflr5 v6.61

 Calculated polar for: TJ1_13_00

 1 1 Reynolds number fixed          Mach number fixed         

 xtrf =   1.000 (top)        1.000 (bottom)
 Mach =   0.200     Re =     0.125 e 6     Ncrit =   9.000

  alpha     CL        CD       CDp       Cm    Top Xtr Bot Xtr   Cpmin    Chinge    XCp    
 ------- -------- --------- --------- -------- ------- ------- -------- --------- ---------
 -23.000  -0.4515   0.22676   0.22227   0.0175  1.0001  0.0418  -0.9476   0.0000   0.0000   0.0000   0.2743
 -22.000  -0.4260   0.21594   0.21143   0.0126  1.0001  0.0448  -0.8850   0.0000   0.0000   0.0000   0.2661
 -21.000  -0.4025   0.20578   0.20121   0.0073  1.0001  0.0490  -0.8541   0.0000   0.0000   0.0000   0.2552
 -20.000  -0.3848   0.19781   0.19321   0.0008  1.0001  0.0540  -0.8896   0.0000   0.0000   0.0000   0.2394
 -19.000  -0.3816   0.19486   0.19026  -0.0063  1.0001  0.0550  -1.0544   0.0000   0.0000   0.0000   0.2208
 -18.000  -0.3405   0.17555   0.17096  -0.0093  1.0001  0.0575  -0.9971   0.0000   0.0000   0.0000   0.2102
 -17.000  -0.3113   0.16564   0.16107  -0.0129  1.0001  0.0640  -0.9683   0.0000   0.0000   0.0000   0.1963
 -16.000  -0.3242   0.16505   0.16048  -0.0207  1.0001  0.0714  -1.2284   0.0000   0.0000   0.0000   0.1736
 -15.000  -0.2722   0.14671   0.14216  -0.0218  1.0001  0.0769  -1.0833   0.0000   0.0000   0.0000   0.1572
 -14.000  -0.2752   0.14184   0.13730  -0.0273  1.0001  0.0876  -1.2311   0.0000   0.0000   0.0000   0.1377
 -13.000  -0.2438   0.12888   0.12438  -0.0285  1.0001  0.0939  -1.1652   0.0000   0.0000   0.0000   0.1194
 -12.000  -0.2873   0.12547   0.12100  -0.0348  1.0001  0.1053  -1.4458   0.0000   0.0000   0.0000   0.1163
 -11.000  -0.2343   0.11010   0.10566  -0.0321  1.0001  0.1157  -1.2338   0.0000   0.0000   0.0000   0.0995
 -10.000  -0.4153   0.10189   0.09710  -0.0355  1.0001  0.0878  -2.1953   0.0000   0.0000   0.0000   0.1505
  -9.000  -0.3899   0.09002   0.08533  -0.0357  1.0001  0.0986  -2.0803   0.0000   0.0000   0.0000   0.1452
  -8.000  -0.6246   0.04341   0.03836  -0.0599  1.0001  0.0812  -3.7374   0.0000   0.0000   0.0000   0.1441
  -7.000  -0.5819   0.03323   0.02710  -0.0596  1.0001  0.0997  -3.4823   0.0000   0.0000   0.0000   0.1384
  -6.000  -0.4963   0.02715   0.01983  -0.0592  1.0001  0.1223  -3.0074   0.0000   0.0000   0.0000   0.1217
  -5.000  -0.3989   0.02416   0.01659  -0.0586  1.0001  0.1492  -2.4236   0.0000   0.0000   0.0000   0.0944
  -4.000  -0.2409   0.02224   0.01410  -0.0683  0.9824  0.1915  -1.8018   0.0000   0.0000   0.0000  -0.0444
  -3.000  -0.0603   0.02075   0.01263  -0.0811  0.9491  0.2457  -1.3060   0.0000   0.0000   0.0000  -1.1253
  -2.000   0.1217   0.01894   0.01103  -0.0924  0.9118  0.3145  -0.9256   0.0000   0.0000   0.0000   1.0174
  -1.000   0.2719   0.01664   0.00928  -0.0958  0.8665  0.4131  -0.7206   0.0000   0.0000   0.0000   0.6028
   0.000   0.3899   0.01413   0.00772  -0.0916  0.8065  0.6210  -0.8731   0.0000   0.0000   0.0000   0.4831
   1.000   0.4904   0.01243   0.00647  -0.0821  0.7145  0.9999  -1.0254   0.0000   0.0000   0.0000   0.4141
   2.000   0.6025   0.01315   0.00613  -0.0800  0.5867  0.9999  -1.1993   0.0000   0.0000   0.0000   0.3782
   3.000   0.7083   0.01477   0.00674  -0.0775  0.4716  0.9999  -1.3816   0.0000   0.0000   0.0000   0.3537
   4.000   0.8148   0.01674   0.00803  -0.0756  0.3934  0.9999  -1.5783   0.0000   0.0000   0.0000   0.3361
   5.000   0.9225   0.01889   0.00979  -0.0741  0.3414  0.9999  -1.8004   0.0000   0.0000   0.0000   0.3225
   6.000   1.0300   0.02132   0.01195  -0.0726  0.3030  0.9999  -2.0373   0.0000   0.0000   0.0000   0.3116
   7.000   1.1341   0.02398   0.01467  -0.0707  0.2719  0.9999  -2.2951   0.0000   0.0000   0.0000   0.3022
   8.000   1.2359   0.02733   0.01817  -0.0686  0.2474  0.9999  -2.5566   0.0000   0.0000   0.0000   0.2941
   9.000   1.3269   0.03092   0.02215  -0.0652  0.2242  0.9999  -2.8806   0.0000   0.0000   0.0000   0.2863
  10.000   1.4093   0.03560   0.02737  -0.0610  0.2058  0.9999  -3.2156   0.0000   0.0000   0.0000   0.2790
  11.000   1.4735   0.04071   0.03300  -0.0550  0.1879  0.9999  -3.6697   0.0000   0.0000   0.0000   0.2715
  12.000   1.5041   0.04715   0.04009  -0.0463  0.1725  0.9999  -4.1159   0.0000   0.0000   0.0000   0.2633
  13.000   1.4906   0.05581   0.04941  -0.0362  0.1613  0.9999  -4.4039   0.0000   0.0000   0.0000   0.2551
  14.000   0.9544   0.16009   0.15478  -0.0867  0.1571  0.9999  -1.9176   0.0000   0.0000   0.0000   0.3230
  15.000   0.9281   0.18839   0.18322  -0.1021  0.1750  0.9999  -1.6372   0.0000   0.0000   0.0000   0.3417
  16.000   0.9523   0.20279   0.19769  -0.1087  0.1584  0.9999  -1.7714   0.0000   0.0000   0.0000   0.3442
  17.000   1.0262   0.21783   0.21297  -0.1058  0.1480  0.9999  -2.2207   0.0000   0.0000   0.0000   0.3311
  18.000   1.0100   0.23116   0.22631  -0.1233  0.1353  0.9999  -2.0309   0.0000   0.0000   0.0000   0.3486
  19.000   1.0356   0.24578   0.24103  -0.1327  0.1229  0.9999  -2.0848   0.0000   0.0000   0.0000   0.3529
  20.000   1.0761   0.25712   0.25250  -0.1375  0.1005  0.9999  -2.2433   0.0000   0.0000   0.0000   0.3502
  21.000   1.1231   0.27411   0.26962  -0.1397  0.0818  0.9999  -2.3730   0.0000   0.0000   0.0000   0.3445
  22.000   1.1300   0.28957   0.28505  -0.1589  0.0794  0.9999  -2.0222   0.0000   0.0000   0.0000   0.3591
  23.000   1.1626   0.30252   0.29805  -0.1685  0.0694  0.9999  -2.0409   0.0000   0.0000   0.0000   0.3611
  24.000   1.2091   0.32735   0.32296  -0.1705  0.0662  0.9999  -2.2349   0.0000   0.0000   0.0000   0.3546
  25.000   1.2222   0.33137   0.32696  -0.1908  0.0616  0.9999  -1.9759   0.0000   0.0000   0.0000   0.3675
  26.000   1.2548   0.34314   0.33880  -0.2000  0.0544  0.9999  -2.0880   0.0000   0.0000   0.0000   0.3680
  27.000   1.2961   0.37191   0.36771  -0.2018  0.0511  0.9999  -2.3960   0.0000   0.0000   0.0000   0.3614
  28.000   1.3150   0.37146   0.36726  -0.2197  0.0502  0.9999  -2.2358   0.0000   0.0000   0.0000   0.3699
  29.000   1.3429   0.37898   0.37485  -0.2339  0.0423  0.9999  -2.2454   0.0000   0.0000   0.0000   0.3740
  30.000   1.3727   0.39015   0.38610  -0.2416  0.0384  0.9999  -2.4703   0.0000   0.0000   0.0000   0.3722


