xflr5 v6.61

 Calculated polar for: TJ1_9_00

 1 1 Reynolds number fixed          Mach number fixed         

 xtrf =   1.000 (top)        1.000 (bottom)
 Mach =   0.200     Re =     0.025 e 6     Ncrit =   9.000

  alpha     CL        CD       CDp       Cm    Top Xtr Bot Xtr   Cpmin    Chinge    XCp    
 ------- -------- --------- --------- -------- ------- ------- -------- --------- ---------
 -30.000  -1.0643   0.38044   0.36999   0.1482  1.0001  0.0752  -1.7849   0.0000   0.0000   0.0000   0.3596
 -29.000  -1.0340   0.36836   0.35780   0.1380  1.0001  0.0812  -1.7113   0.0000   0.0000   0.0000   0.3561
 -28.000  -1.0035   0.36199   0.35134   0.1265  1.0001  0.0867  -1.7011   0.0000   0.0000   0.0000   0.3509
 -27.000  -0.9754   0.36359   0.35290   0.1138  1.0001  0.0888  -1.7391   0.0000   0.0000   0.0000   0.3437
 -26.000  -0.9378   0.33549   0.32466   0.1069  1.0001  0.0958  -1.6269   0.0000   0.0000   0.0000   0.3425
 -25.000  -0.9052   0.32822   0.31734   0.0962  1.0001  0.1037  -1.6004   0.0000   0.0000   0.0000   0.3366
 -24.000  -0.8704   0.31408   0.30310   0.0870  1.0001  0.1091  -1.5443   0.0000   0.0000   0.0000   0.3318
 -23.000  -0.8348   0.30214   0.29111   0.0780  1.0001  0.1192  -1.5171   0.0000   0.0000   0.0000   0.3267
 -22.000  -0.8015   0.29241   0.28141   0.0683  1.0001  0.1246  -1.5145   0.0000   0.0000   0.0000   0.3199
 -21.000  -0.7635   0.27801   0.26696   0.0605  1.0001  0.1365  -1.4555   0.0000   0.0000   0.0000   0.3151
 -20.000  -0.7277   0.26508   0.25407   0.0523  1.0001  0.1443  -1.4114   0.0000   0.0000   0.0000   0.3088
 -19.000  -0.6980   0.25886   0.24778   0.0434  1.0001  0.1565  -1.3884   0.0000   0.0000   0.0000   0.3004
 -18.000  -0.6566   0.24071   0.22965   0.0374  1.0001  0.1710  -1.3503   0.0000   0.0000   0.0000   0.2958
 -17.000  -0.6213   0.22766   0.21666   0.0308  1.0001  0.1875  -1.3309   0.0000   0.0000   0.0000   0.2893
 -16.000  -0.5878   0.21517   0.20424   0.0247  1.0001  0.2052  -1.3082   0.0000   0.0000   0.0000   0.2825
 -15.000  -0.5575   0.20343   0.19251   0.0190  1.0001  0.2242  -1.2854   0.0000   0.0000   0.0000   0.2753
 -14.000  -0.5369   0.19438   0.18359   0.0138  1.0001  0.2437  -1.2788   0.0000   0.0000   0.0000   0.2677
 -13.000  -0.4927   0.17567   0.16496   0.0106  1.0001  0.2709  -1.2053   0.0000   0.0000   0.0000   0.2636
 -12.000  -0.4646   0.16264   0.15206   0.0078  1.0001  0.3057  -1.2262   0.0000   0.0000   0.0000   0.2593
 -11.000  -0.4509   0.15285   0.14241   0.0062  1.0001  0.3482  -1.2687   0.0000   0.0000   0.0000   0.2568
 -10.000  -0.4169   0.13766   0.12737   0.0057  1.0001  0.3992  -1.2728   0.0000   0.0000   0.0000   0.2568
  -9.000  -0.3799   0.12241   0.11229   0.0061  1.0001  0.4628  -1.2683   0.0000   0.0000   0.0000   0.2594
  -8.000  -0.3453   0.10870   0.09872   0.0100  1.0001  0.5732  -1.2507   0.0000   0.0000   0.0000   0.2722
  -7.000  -0.2713   0.09038   0.08044   0.0130  1.0001  0.7667  -1.1807   0.0000   0.0000   0.0000   0.2899
  -6.000  -0.0673   0.05932   0.04880  -0.0210  1.0001  0.9999  -1.0759   0.0000   0.0000   0.0000  -0.0892
  -5.000  -0.3739   0.07555   0.06682  -0.0087  1.0001  0.3633  -1.6203   0.0000   0.0000   0.0000   0.2235
  -4.000  -0.3219   0.05691   0.04787  -0.0303  1.0001  0.3074  -1.7822   0.0000   0.0000   0.0000   0.1530
  -3.000  -0.2081   0.04046   0.03024  -0.0456  1.0001  0.3627  -1.7684   0.0000   0.0000   0.0000   0.0272
  -2.000  -0.1034   0.03191   0.02108  -0.0444  1.0001  0.5366  -1.4577   0.0000   0.0000   0.0000  -0.1851
  -1.000  -0.0422   0.02556   0.01555  -0.0288  1.0001  0.8622  -1.1173   0.0000   0.0000   0.0000  -0.4415
   0.000   0.1317   0.02558   0.01265  -0.0525  1.0001  0.9999  -0.5875   0.0000   0.0000   0.0000   0.6480
   1.000   0.2236   0.02807   0.01430  -0.0542  1.0001  0.9999  -0.5783   0.0000   0.0000   0.0000   0.4901
   2.000   0.3012   0.03218   0.01810  -0.0565  1.0001  0.9999  -0.6715   0.0000   0.0000   0.0000   0.4345
   3.000   0.3608   0.03888   0.02484  -0.0610  1.0001  0.9999  -0.7406   0.0000   0.0000   0.0000   0.4152
   4.000   0.5963   0.04997   0.03648  -0.0934  0.8320  0.9999  -0.9798   0.0000   0.0000   0.0000   0.4026
   5.000   0.7430   0.05691   0.04401  -0.0993  0.6969  0.9999  -1.1786   0.0000   0.0000   0.0000   0.3790
   6.000   0.8203   0.06685   0.05433  -0.0983  0.6117  0.9999  -1.3102   0.0000   0.0000   0.0000   0.3645
   7.000   0.8477   0.08137   0.06921  -0.0982  0.5608  0.9999  -1.3864   0.0000   0.0000   0.0000   0.3597
   8.000   0.8235   0.09996   0.08791  -0.1016  0.5555  0.9999  -1.3273   0.0000   0.0000   0.0000   0.3664
  10.000   0.7459   0.13494   0.12316  -0.1157  0.7619  0.9999  -1.1218   0.0000   0.0000   0.0000   0.3959
  11.000   0.7994   0.15191   0.14053  -0.1193  0.6857  0.9999  -1.2566   0.0000   0.0000   0.0000   0.3891
  12.000   0.8359   0.16668   0.15569  -0.1202  0.6093  0.9999  -1.4465   0.0000   0.0000   0.0000   0.3828
  13.000   0.8767   0.18305   0.17239  -0.1223  0.5423  0.9999  -1.6226   0.0000   0.0000   0.0000   0.3775
  14.000   0.9067   0.19722   0.18683  -0.1247  0.4843  0.9999  -1.7335   0.0000   0.0000   0.0000   0.3743
  15.000   0.9531   0.21688   0.20690  -0.1276  0.4231  0.9999  -1.8338   0.0000   0.0000   0.0000   0.3696
  16.000   0.9749   0.22855   0.21871  -0.1322  0.3776  0.9999  -1.8012   0.0000   0.0000   0.0000   0.3699
  17.000   1.0081   0.24431   0.23457  -0.1372  0.3316  0.9999  -1.8013   0.0000   0.0000   0.0000   0.3691
  18.000   1.0421   0.25924   0.24957  -0.1430  0.2903  0.9999  -1.7894   0.0000   0.0000   0.0000   0.3687
  19.000   1.0755   0.27444   0.26491  -0.1501  0.2633  0.9999  -1.7668   0.0000   0.0000   0.0000   0.3694
  20.000   1.1111   0.28954   0.28010  -0.1573  0.2364  0.9999  -1.8113   0.0000   0.0000   0.0000   0.3696
  21.000   1.1472   0.30629   0.29695  -0.1650  0.2176  0.9999  -1.8523   0.0000   0.0000   0.0000   0.3700
  22.000   1.1862   0.32828   0.31902  -0.1720  0.1987  0.9999  -1.9434   0.0000   0.0000   0.0000   0.3693
  23.000   1.2157   0.33761   0.32855  -0.1818  0.1825  0.9999  -1.9863   0.0000   0.0000   0.0000   0.3717
  24.000   1.2428   0.34341   0.33438  -0.1934  0.1699  0.9999  -1.9842   0.0000   0.0000   0.0000   0.3754
  25.000   1.2745   0.35622   0.34727  -0.2035  0.1588  0.9999  -2.0006   0.0000   0.0000   0.0000   0.3771
  26.000   1.3082   0.37383   0.36499  -0.2121  0.1463  0.9999  -2.1050   0.0000   0.0000   0.0000   0.3773
  27.000   1.3389   0.38483   0.37613  -0.2224  0.1333  0.9999  -2.1669   0.0000   0.0000   0.0000   0.3786
  28.000   1.3672   0.39367   0.38513  -0.2343  0.1264  0.9999  -2.1774   0.0000   0.0000   0.0000   0.3811


