xflr5 v6.61

 Calculated polar for: TJ1_10_00

 1 1 Reynolds number fixed          Mach number fixed         

 xtrf =   1.000 (top)        1.000 (bottom)
 Mach =   0.200     Re =     0.500 e 6     Ncrit =   9.000

  alpha     CL        CD       CDp       Cm    Top Xtr Bot Xtr   Cpmin    Chinge    XCp    
 ------- -------- --------- --------- -------- ------- ------- -------- --------- ---------
 -26.000  -0.9361   0.33034   0.32786   0.1135  1.0001  0.0071  -1.8764   0.0000   0.0000   0.0000   0.3468
 -25.000  -0.9019   0.31883   0.31633   0.1036  1.0001  0.0077  -1.7437   0.0000   0.0000   0.0000   0.3424
 -24.000  -0.8665   0.30660   0.30409   0.0938  1.0001  0.0088  -1.6613   0.0000   0.0000   0.0000   0.3374
 -23.000  -0.8282   0.29362   0.29109   0.0832  1.0001  0.0106  -1.7997   0.0000   0.0000   0.0000   0.3310
 -22.000  -0.7922   0.28128   0.27873   0.0725  1.0001  0.0108  -1.9011   0.0000   0.0000   0.0000   0.3233
 -21.000  -0.7565   0.26842   0.26587   0.0627  1.0001  0.0109  -1.9040   0.0000   0.0000   0.0000   0.3159
 -20.000  -0.7221   0.25229   0.24976   0.0543  1.0001  0.0112  -1.9167   0.0000   0.0000   0.0000   0.3092
 -19.000  -0.6847   0.23932   0.23676   0.0477  1.0001  0.0119  -1.6927   0.0000   0.0000   0.0000   0.3050
 -18.000  -0.6479   0.22657   0.22402   0.0400  1.0001  0.0131  -1.6193   0.0000   0.0000   0.0000   0.2982
 -17.000  -0.6113   0.21273   0.21019   0.0315  1.0001  0.0163  -1.6937   0.0000   0.0000   0.0000   0.2889
 -16.000  -0.5787   0.19972   0.19719   0.0220  1.0001  0.0171  -1.8046   0.0000   0.0000   0.0000   0.2760
 -15.000  -0.3376   0.14762   0.14535  -0.0123  1.0001  0.0186  -1.2354   0.0000   0.0000   0.0000   0.2064
 -14.000  -0.3158   0.13874   0.13647  -0.0159  1.0001  0.0198  -1.1151   0.0000   0.0000   0.0000   0.1926
 -13.000  -0.3019   0.13003   0.12776  -0.0193  1.0001  0.0217  -1.1379   0.0000   0.0000   0.0000   0.1789
 -12.000  -0.2986   0.12059   0.11833  -0.0227  1.0001  0.0248  -1.2633   0.0000   0.0000   0.0000   0.1665
 -11.000  -0.2902   0.10840   0.10615  -0.0277  1.0001  0.0265  -1.4147   0.0000   0.0000   0.0000   0.1467
  -9.000  -0.4422   0.08548   0.08316  -0.0272  1.0001  0.0160  -2.8031   0.0000   0.0000   0.0000   0.1798
  -8.000  -0.5968   0.03021   0.02697  -0.0701  0.9966  0.0128  -5.6928   0.0000   0.0000   0.0000   0.1245
  -7.000  -0.4676   0.01820   0.01337  -0.0826  0.9879  0.0143  -5.1844   0.0000   0.0000   0.0000   0.0651
  -6.000  -0.3250   0.01327   0.00767  -0.0894  0.9791  0.0210  -4.3048   0.0000   0.0000   0.0000  -0.0342
  -5.000  -0.1768   0.01106   0.00523  -0.0959  0.9697  0.0368  -3.1807   0.0000   0.0000   0.0000  -0.3048
  -4.000  -0.0420   0.00964   0.00390  -0.0991  0.9525  0.0940  -2.1600   0.0000   0.0000   0.0000  -2.1501
  -3.000   0.0707   0.00876   0.00313  -0.0970  0.9260  0.1550  -1.4196   0.0000   0.0000   0.0000   1.6370
  -2.000   0.1796   0.00801   0.00248  -0.0942  0.8908  0.2241  -0.8870   0.0000   0.0000   0.0000   0.7774
  -1.000   0.2923   0.00734   0.00202  -0.0925  0.8409  0.3268  -0.5991   0.0000   0.0000   0.0000   0.5666
   0.000   0.4047   0.00677   0.00180  -0.0911  0.7533  0.5463  -0.7411   0.0000   0.0000   0.0000   0.4736
   1.000   0.5030   0.00646   0.00198  -0.0861  0.6256  0.8997  -0.8903   0.0000   0.0000   0.0000   0.4187
   2.000   0.6155   0.00740   0.00222  -0.0851  0.4814  0.9999  -1.0680   0.0000   0.0000   0.0000   0.3849
   3.000   0.7268   0.00857   0.00275  -0.0843  0.3647  0.9999  -1.2727   0.0000   0.0000   0.0000   0.3618
   4.000   0.8380   0.00972   0.00348  -0.0835  0.2871  0.9999  -1.5043   0.0000   0.0000   0.0000   0.3444
   5.000   0.9491   0.01081   0.00437  -0.0825  0.2395  0.9999  -1.7693   0.0000   0.0000   0.0000   0.3307
   6.000   1.0587   0.01198   0.00545  -0.0812  0.2044  0.9999  -2.1042   0.0000   0.0000   0.0000   0.3194
   7.000   1.1660   0.01325   0.00659  -0.0796  0.1659  0.9999  -2.6617   0.0000   0.0000   0.0000   0.3097
   8.000   1.2712   0.01463   0.00797  -0.0777  0.1327  0.9999  -3.4654   0.0000   0.0000   0.0000   0.3012
   9.000   1.3725   0.01625   0.00967  -0.0751  0.1037  0.9999  -4.3145   0.0000   0.0000   0.0000   0.2933
  10.000   1.4641   0.01860   0.01196  -0.0712  0.0655  0.9999  -5.1444   0.0000   0.0000   0.0000   0.2857
  11.000   1.5300   0.02281   0.01608  -0.0642  0.0207  0.9999  -5.9421   0.0000   0.0000   0.0000   0.2774
  12.000   1.5694   0.02757   0.02129  -0.0541  0.0151  0.9999  -6.6508   0.0000   0.0000   0.0000   0.2682
  13.000   1.5846   0.03463   0.02892  -0.0453  0.0139  0.9999  -7.2582   0.0000   0.0000   0.0000   0.2605
  14.000   1.5681   0.04719   0.04211  -0.0421  0.0133  0.9999  -7.6413   0.0000   0.0000   0.0000   0.2568
  15.000   1.5162   0.06883   0.06443  -0.0489  0.0131  0.9999  -7.7014   0.0000   0.0000   0.0000   0.2600
  16.000   1.4367   0.09744   0.09364  -0.0610  0.0131  0.9999  -7.4484   0.0000   0.0000   0.0000   0.2684
  17.000   1.3652   0.12588   0.12253  -0.0737  0.0132  0.9999  -7.1458   0.0000   0.0000   0.0000   0.2782
  18.000   1.3157   0.15222   0.14928  -0.0871  0.0131  0.9999  -6.8945   0.0000   0.0000   0.0000   0.2887
  19.000   1.2733   0.17976   0.17723  -0.1033  0.0131  0.9999  -6.5136   0.0000   0.0000   0.0000   0.3021
  20.000   1.1430   0.24697   0.24488  -0.1442  0.0146  0.9999  -3.4998   0.0000   0.0000   0.0000   0.3496
  21.000   0.7776   0.23140   0.22950  -0.0988  0.0250  0.9999  -1.5449   0.0000   0.0000   0.0000   0.3562
  22.000   0.7866   0.24722   0.24535  -0.1043  0.0249  0.9999  -1.4594   0.0000   0.0000   0.0000   0.3605
  23.000   0.7934   0.26172   0.25987  -0.1112  0.0210  0.9999  -1.3720   0.0000   0.0000   0.0000   0.3669
  24.000   0.8070   0.27395   0.27216  -0.1158  0.0177  0.9999  -1.4933   0.0000   0.0000   0.0000   0.3683
  25.000   0.8178   0.29011   0.28835  -0.1199  0.0160  0.9999  -1.5031   0.0000   0.0000   0.0000   0.3695
  26.000   0.8239   0.30590   0.30417  -0.1265  0.0133  0.9999  -1.3395   0.0000   0.0000   0.0000   0.3751
  27.000   0.8350   0.31865   0.31696  -0.1312  0.0110  0.9999  -1.4804   0.0000   0.0000   0.0000   0.3763
  28.000   0.8435   0.33498   0.33331  -0.1355  0.0102  0.9999  -1.5014   0.0000   0.0000   0.0000   0.3777
  29.000   0.8492   0.35180   0.35019  -0.1415  0.0077  0.9999  -1.2885   0.0000   0.0000   0.0000   0.3820
  30.000   0.8574   0.36432   0.36275  -0.1460  0.0066  0.9999  -1.4109   0.0000   0.0000   0.0000   0.3827


