xflr5 v6.61

 Calculated polar for: TJ1_7_00

 1 1 Reynolds number fixed          Mach number fixed         

 xtrf =   1.000 (top)        1.000 (bottom)
 Mach =   0.200     Re =     0.080 e 6     Ncrit =   9.000

  alpha     CL        CD       CDp       Cm    Top Xtr Bot Xtr   Cpmin    Chinge    XCp    
 ------- -------- --------- --------- -------- ------- ------- -------- --------- ---------
 -10.000  -0.4548   0.12930   0.12348  -0.0045  1.0001  0.0851  -1.4604   0.0000   0.0000   0.0000   0.2363
  -9.000  -0.4367   0.11597   0.11031  -0.0104  1.0001  0.0917  -1.4949   0.0000   0.0000   0.0000   0.2227
  -8.000  -0.4290   0.10651   0.10107  -0.0189  1.0001  0.1048  -1.5606   0.0000   0.0000   0.0000   0.2032
  -7.000  -0.3976   0.09122   0.08594  -0.0181  1.0001  0.1171  -1.4035   0.0000   0.0000   0.0000   0.2019
  -6.000  -0.3844   0.07940   0.07437  -0.0227  1.0001  0.1327  -1.3706   0.0000   0.0000   0.0000   0.1888
  -5.000  -0.3553   0.06626   0.06132  -0.0349  1.0001  0.1591  -1.4449   0.0000   0.0000   0.0000   0.1503
  -3.000  -0.1101   0.02525   0.01674  -0.0680  1.0001  0.0735  -2.1428   0.0000   0.0000   0.0000  -0.3723
  -2.000   0.0178   0.01838   0.00910  -0.0698  1.0001  0.1180  -1.8931   0.0000   0.0000   0.0000   4.1908
  -1.000   0.1178   0.01370   0.00720  -0.0658  1.0001  0.9999  -1.2792   0.0000   0.0000   0.0000   0.8104
   0.000   0.2252   0.01490   0.00726  -0.0670  1.0001  0.9999  -0.6248   0.0000   0.0000   0.0000   0.5467
   1.000   0.3362   0.01693   0.00886  -0.0705  0.9938  0.9999  -0.5752   0.0000   0.0000   0.0000   0.4581
   2.000   0.5590   0.01773   0.00969  -0.0911  0.9138  0.9999  -0.8272   0.0000   0.0000   0.0000   0.4108
   3.000   0.7138   0.01586   0.00815  -0.0918  0.8085  0.9999  -1.0870   0.0000   0.0000   0.0000   0.3758
   4.000   0.8214   0.01565   0.00741  -0.0833  0.6052  0.9999  -1.3738   0.0000   0.0000   0.0000   0.3477
   5.000   0.9181   0.01880   0.00958  -0.0778  0.4222  0.9999  -2.0027   0.0000   0.0000   0.0000   0.3301
   6.000   1.0180   0.02262   0.01328  -0.0744  0.3147  0.9999  -2.8052   0.0000   0.0000   0.0000   0.3175
   7.000   1.1125   0.02683   0.01776  -0.0704  0.2247  0.9999  -3.6775   0.0000   0.0000   0.0000   0.3065
   8.000   1.1767   0.03071   0.02167  -0.0632  0.0985  0.9999  -4.4209   0.0000   0.0000   0.0000   0.2956
   9.000   1.2405   0.04248   0.03442  -0.0556  0.0581  0.9999  -4.6777   0.0000   0.0000   0.0000   0.2855
  10.000   1.2544   0.05825   0.05177  -0.0471  0.0539  0.9999  -4.8379   0.0000   0.0000   0.0000   0.2772
  11.000   1.1639   0.07855   0.07337  -0.0436  0.0557  0.9999  -4.4438   0.0000   0.0000   0.0000   0.2761
  12.000   1.0361   0.12410   0.11922  -0.0744  0.0630  0.9999  -3.3131   0.0000   0.0000   0.0000   0.3103
  13.000   0.9890   0.16092   0.15581  -0.0943  0.0752  0.9999  -2.5019   0.0000   0.0000   0.0000   0.3337
  14.000   0.9803   0.19090   0.18567  -0.1109  0.1227  0.9999  -1.9429   0.0000   0.0000   0.0000   0.3511
  15.000   1.0327   0.21469   0.20962  -0.1102  0.1143  0.9999  -2.1741   0.0000   0.0000   0.0000   0.3435
  16.000   1.0257   0.22456   0.21936  -0.1268  0.1031  0.9999  -1.9348   0.0000   0.0000   0.0000   0.3591
  17.000   1.0521   0.24056   0.23534  -0.1358  0.0923  0.9999  -1.9178   0.0000   0.0000   0.0000   0.3632


