xflr5 v6.61

 Calculated polar for: TJ1_11_00

 1 1 Reynolds number fixed          Mach number fixed         

 xtrf =   1.000 (top)        1.000 (bottom)
 Mach =   0.200     Re =     0.050 e 6     Ncrit =   9.000

  alpha     CL        CD       CDp       Cm    Top Xtr Bot Xtr   Cpmin    Chinge    XCp    
 ------- -------- --------- --------- -------- ------- ------- -------- --------- ---------
 -30.000  -1.0359   0.37102   0.36332   0.1441  1.0001  0.0451  -1.7620   0.0000   0.0000   0.0000   0.3547
 -29.000  -1.0048   0.36073   0.35296   0.1334  1.0001  0.0496  -1.7259   0.0000   0.0000   0.0000   0.3507
 -28.000  -0.9726   0.35334   0.34551   0.1215  1.0001  0.0537  -1.7276   0.0000   0.0000   0.0000   0.3451
 -27.000  -0.9444   0.35911   0.35121   0.1074  1.0001  0.0549  -1.7788   0.0000   0.0000   0.0000   0.3363
 -26.000  -0.9078   0.33317   0.32525   0.0994  1.0001  0.0564  -1.7021   0.0000   0.0000   0.0000   0.3337
 -25.000  -0.8706   0.31569   0.30771   0.0919  1.0001  0.0605  -1.5986   0.0000   0.0000   0.0000   0.3314
 -24.000  -0.8346   0.30414   0.29605   0.0824  1.0001  0.0665  -1.5523   0.0000   0.0000   0.0000   0.3262
 -23.000  -0.8045   0.30373   0.29566   0.0694  1.0001  0.0712  -1.6023   0.0000   0.0000   0.0000   0.3157
 -22.000  -0.7651   0.28316   0.27510   0.0618  1.0001  0.0733  -1.5153   0.0000   0.0000   0.0000   0.3114
 -21.000  -0.7245   0.26741   0.25932   0.0550  1.0001  0.0793  -1.4390   0.0000   0.0000   0.0000   0.3077
 -20.000  -0.6893   0.25761   0.24953   0.0454  1.0001  0.0866  -1.4480   0.0000   0.0000   0.0000   0.2989
 -19.000  -0.6620   0.25107   0.24301   0.0348  1.0001  0.0891  -1.5042   0.0000   0.0000   0.0000   0.2870
 -18.000  -0.6136   0.22997   0.22188   0.0306  1.0001  0.0968  -1.3548   0.0000   0.0000   0.0000   0.2849
 -17.000  -0.5901   0.22470   0.21668   0.0205  1.0001  0.1049  -1.3964   0.0000   0.0000   0.0000   0.2709
 -16.000  -0.5429   0.20458   0.19661   0.0165  1.0001  0.1146  -1.2912   0.0000   0.0000   0.0000   0.2671
 -15.000  -0.5209   0.19508   0.18717   0.0082  1.0001  0.1241  -1.3814   0.0000   0.0000   0.0000   0.2534
 -14.000  -0.4855   0.18113   0.17326   0.0035  1.0001  0.1380  -1.3789   0.0000   0.0000   0.0000   0.2453
 -13.000  -0.4503   0.16582   0.15803  -0.0007  1.0001  0.1492  -1.3795   0.0000   0.0000   0.0000   0.2371
 -12.000  -0.4260   0.15288   0.14521  -0.0055  1.0001  0.1630  -1.4167   0.0000   0.0000   0.0000   0.2263
 -11.000  -0.4019   0.14029   0.13274  -0.0090  1.0001  0.1865  -1.4277   0.0000   0.0000   0.0000   0.2173
 -10.000  -0.3906   0.12890   0.12148  -0.0132  1.0001  0.2074  -1.4779   0.0000   0.0000   0.0000   0.2068
  -9.000  -0.3786   0.11611   0.10891  -0.0165  1.0001  0.2280  -1.5122   0.0000   0.0000   0.0000   0.1979
  -8.000  -0.3714   0.10503   0.09806  -0.0175  1.0001  0.2609  -1.5213   0.0000   0.0000   0.0000   0.1954
  -7.000  -0.3395   0.09095   0.08419  -0.0135  1.0001  0.3063  -1.4572   0.0000   0.0000   0.0000   0.2030
  -5.000  -0.3881   0.05048   0.04346  -0.0450  1.0001  0.1886  -2.2214   0.0000   0.0000   0.0000   0.1291
  -4.000  -0.2925   0.03575   0.02723  -0.0543  1.0001  0.2282  -2.0685   0.0000   0.0000   0.0000   0.0586
  -3.000  -0.1841   0.02937   0.02002  -0.0568  1.0001  0.2945  -1.6236   0.0000   0.0000   0.0000  -0.0653
  -2.000  -0.0776   0.02630   0.01675  -0.0576  1.0001  0.3860  -1.1834   0.0000   0.0000   0.0000  -0.5025
  -1.000   0.0227   0.02504   0.01577  -0.0576  1.0001  0.5138  -0.8578   0.0000   0.0000   0.0000   2.8039
   0.000   0.0786   0.02375   0.01624  -0.0479  1.0001  0.9387  -0.6886   0.0000   0.0000   0.0000   0.8591
   1.000   0.3456   0.02734   0.01831  -0.0813  0.9076  0.9999  -0.7561   0.0000   0.0000   0.0000   0.4830
   2.000   0.5421   0.02658   0.01732  -0.0907  0.7985  0.9999  -0.9847   0.0000   0.0000   0.0000   0.4140
   3.000   0.6966   0.02407   0.01448  -0.0873  0.6850  0.9999  -1.2158   0.0000   0.0000   0.0000   0.3711
   4.000   0.8106   0.02523   0.01501  -0.0816  0.5654  0.9999  -1.4238   0.0000   0.0000   0.0000   0.3456
   5.000   0.9154   0.02864   0.01804  -0.0779  0.4778  0.9999  -1.6316   0.0000   0.0000   0.0000   0.3291
   6.000   1.0109   0.03366   0.02316  -0.0748  0.4145  0.9999  -1.8349   0.0000   0.0000   0.0000   0.3169
   7.000   1.0966   0.04022   0.03015  -0.0713  0.3675  0.9999  -2.0797   0.0000   0.0000   0.0000   0.3070
   8.000   1.1507   0.05012   0.04082  -0.0669  0.3309  0.9999  -2.2730   0.0000   0.0000   0.0000   0.2990
   9.000   1.1752   0.06267   0.05409  -0.0618  0.3008  0.9999  -2.4436   0.0000   0.0000   0.0000   0.2924
  13.000   0.6153   0.14745   0.14005  -0.0692  0.3419  0.9999  -0.9317   0.0000   0.0000   0.0000   0.3525
  14.000   0.6348   0.15763   0.15038  -0.0706  0.3063  0.9999  -0.9756   0.0000   0.0000   0.0000   0.3502
  15.000   0.6562   0.16983   0.16273  -0.0730  0.2833  0.9999  -1.1000   0.0000   0.0000   0.0000   0.3492
  16.000   0.6649   0.17859   0.17172  -0.0760  0.2555  0.9999  -1.1680   0.0000   0.0000   0.0000   0.3512
  17.000   0.7054   0.19622   0.18955  -0.0781  0.2331  0.9999  -1.3320   0.0000   0.0000   0.0000   0.3464
  18.000   0.7008   0.20321   0.19668  -0.0826  0.2143  0.9999  -1.2807   0.0000   0.0000   0.0000   0.3525
  19.000   0.7081   0.21346   0.20709  -0.0870  0.1888  0.9999  -1.2178   0.0000   0.0000   0.0000   0.3563
  20.000   0.7425   0.23303   0.22684  -0.0891  0.1645  0.9999  -1.2478   0.0000   0.0000   0.0000   0.3521
  21.000   0.7550   0.24627   0.24017  -0.0934  0.1476  0.9999  -1.2107   0.0000   0.0000   0.0000   0.3543
  22.000   0.7512   0.25298   0.24696  -0.0996  0.1348  0.9999  -1.0932   0.0000   0.0000   0.0000   0.3620
  23.000   0.7618   0.26619   0.26024  -0.1047  0.1243  0.9999  -1.0512   0.0000   0.0000   0.0000   0.3652
  24.000   0.7900   0.28656   0.28073  -0.1074  0.1142  0.9999  -1.1441   0.0000   0.0000   0.0000   0.3618
  25.000   0.7865   0.29372   0.28805  -0.1142  0.1060  0.9999  -1.0617   0.0000   0.0000   0.0000   0.3696
  26.000   0.8114   0.31475   0.30920  -0.1170  0.0978  0.9999  -1.1723   0.0000   0.0000   0.0000   0.3665
  27.000   0.8083   0.32221   0.31677  -0.1239  0.0898  0.9999  -1.0738   0.0000   0.0000   0.0000   0.3737
  28.000   0.8327   0.34487   0.33959  -0.1265  0.0821  0.9999  -1.2240   0.0000   0.0000   0.0000   0.3699
  29.000   0.8270   0.35206   0.34689  -0.1335  0.0781  0.9999  -1.1148   0.0000   0.0000   0.0000   0.3776
  30.000   0.8362   0.36678   0.36175  -0.1381  0.0691  0.9999  -1.1317   0.0000   0.0000   0.0000   0.3787


