xflr5 v6.61

 Calculated polar for: TJ1_11_00

 1 1 Reynolds number fixed          Mach number fixed         

 xtrf =   1.000 (top)        1.000 (bottom)
 Mach =   0.200     Re =     0.075 e 6     Ncrit =   9.000

  alpha     CL        CD       CDp       Cm    Top Xtr Bot Xtr   Cpmin    Chinge    XCp    
 ------- -------- --------- --------- -------- ------- ------- -------- --------- ---------
 -20.000  -0.6904   0.25371   0.24711   0.0469  1.0001  0.0588  -1.4846   0.0000   0.0000   0.0000   0.3008
 -19.000  -0.6518   0.24085   0.23419   0.0395  1.0001  0.0641  -1.4226   0.0000   0.0000   0.0000   0.2945
 -18.000  -0.6185   0.23103   0.22441   0.0297  1.0001  0.0703  -1.4400   0.0000   0.0000   0.0000   0.2830
 -17.000  -0.6108   0.23195   0.22543   0.0174  1.0001  0.0716  -1.5863   0.0000   0.0000   0.0000   0.2650
 -16.000  -0.5447   0.20195   0.19541   0.0167  1.0001  0.0778  -1.3081   0.0000   0.0000   0.0000   0.2671
 -15.000  -0.5169   0.19137   0.18484   0.0085  1.0001  0.0869  -1.3776   0.0000   0.0000   0.0000   0.2537
 -14.000  -0.4841   0.17595   0.16950   0.0031  1.0001  0.0920  -1.4022   0.0000   0.0000   0.0000   0.2442
 -13.000  -0.4765   0.16882   0.16247  -0.0054  1.0001  0.1050  -1.5338   0.0000   0.0000   0.0000   0.2278
 -12.000  -0.4261   0.14915   0.14285  -0.0066  1.0001  0.1141  -1.4480   0.0000   0.0000   0.0000   0.2234
 -11.000  -0.4198   0.13717   0.13102  -0.0141  1.0001  0.1244  -1.5830   0.0000   0.0000   0.0000   0.2064
 -10.000  -0.4128   0.12630   0.12026  -0.0206  1.0001  0.1393  -1.6714   0.0000   0.0000   0.0000   0.1911
  -9.000  -0.4110   0.11424   0.10844  -0.0265  1.0001  0.1570  -1.7572   0.0000   0.0000   0.0000   0.1776
  -8.000  -0.3916   0.09912   0.09353  -0.0269  1.0001  0.1751  -1.7341   0.0000   0.0000   0.0000   0.1741
  -6.000  -0.4495   0.04808   0.04210  -0.0530  1.0001  0.1023  -2.7905   0.0000   0.0000   0.0000   0.1259
  -5.000  -0.3741   0.03356   0.02624  -0.0588  1.0001  0.1298  -2.6524   0.0000   0.0000   0.0000   0.0866
  -4.000  -0.2719   0.02742   0.01912  -0.0602  1.0001  0.1816  -2.2169   0.0000   0.0000   0.0000   0.0220
  -3.000  -0.1616   0.02392   0.01500  -0.0614  1.0001  0.2456  -1.6786   0.0000   0.0000   0.0000  -0.1382
  -2.000  -0.0584   0.02239   0.01354  -0.0618  1.0001  0.3221  -1.2032   0.0000   0.0000   0.0000  -0.8224
  -1.000   0.0817   0.02206   0.01366  -0.0696  0.9840  0.4547  -0.8119   0.0000   0.0000   0.0000   1.1055
   0.000   0.2681   0.02036   0.01352  -0.0797  0.9203  0.9999  -0.6621   0.0000   0.0000   0.0000   0.5464
   1.000   0.4561   0.01943   0.01198  -0.0898  0.8451  0.9999  -0.8695   0.0000   0.0000   0.0000   0.4445
   2.000   0.5990   0.01734   0.00953  -0.0878  0.7536  0.9999  -1.0706   0.0000   0.0000   0.0000   0.3931
   3.000   0.7123   0.01736   0.00871  -0.0822  0.6154  0.9999  -1.2641   0.0000   0.0000   0.0000   0.3610
   4.000   0.8171   0.01952   0.00994  -0.0783  0.4919  0.9999  -1.4694   0.0000   0.0000   0.0000   0.3404
   5.000   0.9221   0.02243   0.01242  -0.0758  0.4103  0.9999  -1.6890   0.0000   0.0000   0.0000   0.3258
   6.000   1.0277   0.02589   0.01566  -0.0737  0.3544  0.9999  -1.9285   0.0000   0.0000   0.0000   0.3143
   7.000   1.1255   0.03010   0.02022  -0.0711  0.3096  0.9999  -2.2229   0.0000   0.0000   0.0000   0.3046
   8.000   1.2167   0.03532   0.02596  -0.0678  0.2740  0.9999  -2.5526   0.0000   0.0000   0.0000   0.2960
   9.000   1.2904   0.04244   0.03384  -0.0633  0.2448  0.9999  -3.0700   0.0000   0.0000   0.0000   0.2880
  10.000   1.3577   0.04959   0.04157  -0.0582  0.2168  0.9999  -3.6448   0.0000   0.0000   0.0000   0.2804
  11.000   1.3375   0.06213   0.05525  -0.0485  0.1958  0.9999  -3.8477   0.0000   0.0000   0.0000   0.2726
  15.000   0.9444   0.19673   0.19052  -0.1100  0.2094  0.9999  -1.8758   0.0000   0.0000   0.0000   0.3502
  16.000   0.9691   0.21169   0.20561  -0.1167  0.1919  0.9999  -1.9630   0.0000   0.0000   0.0000   0.3527
  17.000   1.0003   0.22618   0.22026  -0.1228  0.1692  0.9999  -2.0399   0.0000   0.0000   0.0000   0.3534
  18.000   1.0263   0.24102   0.23523  -0.1309  0.1416  0.9999  -1.9694   0.0000   0.0000   0.0000   0.3565
  19.000   1.0556   0.25661   0.25085  -0.1397  0.1245  0.9999  -1.9087   0.0000   0.0000   0.0000   0.3596
  20.000   1.0906   0.27284   0.26712  -0.1469  0.1124  0.9999  -1.9265   0.0000   0.0000   0.0000   0.3601
  21.000   1.1263   0.28728   0.28163  -0.1546  0.0996  0.9999  -1.9618   0.0000   0.0000   0.0000   0.3606
  22.000   1.1523   0.30093   0.29526  -0.1671  0.0948  0.9999  -1.8875   0.0000   0.0000   0.0000   0.3663
  23.000   1.1864   0.31426   0.30874  -0.1760  0.0849  0.9999  -1.9570   0.0000   0.0000   0.0000   0.3675
  24.000   1.2182   0.32979   0.32430  -0.1857  0.0803  0.9999  -2.0179   0.0000   0.0000   0.0000   0.3692
  25.000   1.2488   0.34065   0.33522  -0.1975  0.0711  0.9999  -2.0494   0.0000   0.0000   0.0000   0.3725
  26.000   1.2924   0.37613   0.37084  -0.1989  0.0662  0.9999  -2.3157   0.0000   0.0000   0.0000   0.3658
  27.000   1.3105   0.36629   0.36103  -0.2191  0.0615  0.9999  -2.1508   0.0000   0.0000   0.0000   0.3762
  28.000   1.3415   0.37778   0.37262  -0.2289  0.0542  0.9999  -2.2666   0.0000   0.0000   0.0000   0.3767
  29.000   1.3751   0.41252   0.40746  -0.2328  0.0510  0.9999  -2.4776   0.0000   0.0000   0.0000   0.3726
  30.000   1.3982   0.40035   0.39529  -0.2523  0.0468  0.9999  -2.2698   0.0000   0.0000   0.0000   0.3805


