xflr5 v6.61

 Calculated polar for: TJ1_11_00

 1 1 Reynolds number fixed          Mach number fixed         

 xtrf =   1.000 (top)        1.000 (bottom)
 Mach =   0.200     Re =     0.100 e 6     Ncrit =   9.000

  alpha     CL        CD       CDp       Cm    Top Xtr Bot Xtr   Cpmin    Chinge    XCp    
 ------- -------- --------- --------- -------- ------- ------- -------- --------- ---------
 -21.000  -0.7291   0.26541   0.25968   0.0565  1.0001  0.0430  -1.5192   0.0000   0.0000   0.0000   0.3091
 -20.000  -0.6908   0.25281   0.24708   0.0487  1.0001  0.0475  -1.4674   0.0000   0.0000   0.0000   0.3032
 -19.000  -0.6539   0.24087   0.23509   0.0396  1.0001  0.0526  -1.4688   0.0000   0.0000   0.0000   0.2944
 -18.000  -0.6308   0.23716   0.23143   0.0271  1.0001  0.0549  -1.5900   0.0000   0.0000   0.0000   0.2782
 -17.000  -0.5913   0.21705   0.21137   0.0208  1.0001  0.0563  -1.5287   0.0000   0.0000   0.0000   0.2709
 -16.000  -0.5465   0.20057   0.19490   0.0172  1.0001  0.0608  -1.3354   0.0000   0.0000   0.0000   0.2678
 -15.000  -0.5133   0.18789   0.18222   0.0102  1.0001  0.0681  -1.3445   0.0000   0.0000   0.0000   0.2570
 -14.000  -0.5149   0.18307   0.17750  -0.0024  1.0001  0.0715  -1.6155   0.0000   0.0000   0.0000   0.2337
 -13.000  -0.4546   0.16020   0.15465  -0.0019  1.0001  0.0776  -1.4398   0.0000   0.0000   0.0000   0.2341
 -12.000  -0.4606   0.15250   0.14708  -0.0134  1.0001  0.0882  -1.6896   0.0000   0.0000   0.0000   0.2104
 -11.000  -0.4060   0.13342   0.12805  -0.0122  1.0001  0.0990  -1.5306   0.0000   0.0000   0.0000   0.2094
 -10.000  -0.4039   0.11978   0.11453  -0.0206  1.0001  0.1074  -1.7051   0.0000   0.0000   0.0000   0.1894
  -9.000  -0.3948   0.10768   0.10259  -0.0273  1.0001  0.1218  -1.7878   0.0000   0.0000   0.0000   0.1723
  -8.000  -0.3885   0.09472   0.08985  -0.0301  1.0001  0.1389  -1.8198   0.0000   0.0000   0.0000   0.1649
  -7.000  -0.4438   0.07114   0.06655  -0.0369  1.0001  0.0920  -2.3839   0.0000   0.0000   0.0000   0.1604
  -6.000  -0.4596   0.03709   0.03115  -0.0590  1.0001  0.0796  -3.1819   0.0000   0.0000   0.0000   0.1149
  -5.000  -0.3642   0.02626   0.01863  -0.0625  1.0001  0.1100  -2.8565   0.0000   0.0000   0.0000   0.0714
  -4.000  -0.2579   0.02279   0.01452  -0.0627  1.0001  0.1593  -2.3042   0.0000   0.0000   0.0000  -0.0007
  -3.000  -0.1530   0.02096   0.01257  -0.0627  1.0001  0.2168  -1.7116   0.0000   0.0000   0.0000  -0.1691
  -2.000  -0.0115   0.02011   0.01179  -0.0700  0.9874  0.3010  -1.1296   0.0000   0.0000   0.0000  -5.9164
  -1.000   0.1910   0.01888   0.01130  -0.0868  0.9429  0.4679  -0.6840   0.0000   0.0000   0.0000   0.7055
   0.000   0.3474   0.01620   0.01014  -0.0888  0.8905  0.9999  -0.7312   0.0000   0.0000   0.0000   0.5045
   1.000   0.4903   0.01476   0.00818  -0.0898  0.8220  0.9999  -0.9116   0.0000   0.0000   0.0000   0.4306
   2.000   0.6078   0.01387   0.00677  -0.0854  0.7139  0.9999  -1.0914   0.0000   0.0000   0.0000   0.3870
   3.000   0.7142   0.01486   0.00675  -0.0809  0.5655  0.9999  -1.2790   0.0000   0.0000   0.0000   0.3587
   4.000   0.8175   0.01702   0.00803  -0.0777  0.4469  0.9999  -1.4859   0.0000   0.0000   0.0000   0.3395
   5.000   0.9231   0.01956   0.01004  -0.0756  0.3731  0.9999  -1.7136   0.0000   0.0000   0.0000   0.3253
   6.000   1.0290   0.02240   0.01271  -0.0737  0.3213  0.9999  -1.9609   0.0000   0.0000   0.0000   0.3140
   7.000   1.1322   0.02575   0.01617  -0.0717  0.2812  0.9999  -2.2759   0.0000   0.0000   0.0000   0.3045
   8.000   1.2308   0.02962   0.02034  -0.0690  0.2475  0.9999  -2.6486   0.0000   0.0000   0.0000   0.2960
   9.000   1.3214   0.03406   0.02524  -0.0655  0.2181  0.9999  -3.3028   0.0000   0.0000   0.0000   0.2882
  10.000   1.3921   0.03963   0.03166  -0.0600  0.1904  0.9999  -3.9185   0.0000   0.0000   0.0000   0.2803
  11.000   1.4541   0.04548   0.03804  -0.0539  0.1667  0.9999  -4.5381   0.0000   0.0000   0.0000   0.2726
  12.000   1.4662   0.05230   0.04561  -0.0438  0.1443  0.9999  -4.9698   0.0000   0.0000   0.0000   0.2639
  13.000   1.4364   0.06167   0.05567  -0.0343  0.1288  0.9999  -5.2031   0.0000   0.0000   0.0000   0.2561
  15.000   0.9556   0.19282   0.18747  -0.1077  0.1753  0.9999  -1.9899   0.0000   0.0000   0.0000   0.3462
  16.000   0.9845   0.20891   0.20370  -0.1133  0.1623  0.9999  -2.1079   0.0000   0.0000   0.0000   0.3471
  17.000   1.0355   0.22410   0.21914  -0.1138  0.1306  0.9999  -2.3475   0.0000   0.0000   0.0000   0.3400
  18.000   1.0451   0.23996   0.23501  -0.1254  0.1135  0.9999  -2.1265   0.0000   0.0000   0.0000   0.3486
  19.000   1.0780   0.25716   0.25223  -0.1323  0.0975  0.9999  -2.1433   0.0000   0.0000   0.0000   0.3495
  20.000   1.0920   0.26894   0.26399  -0.1478  0.0869  0.9999  -1.9510   0.0000   0.0000   0.0000   0.3605
  21.000   1.1442   0.29431   0.28946  -0.1486  0.0818  0.9999  -2.1481   0.0000   0.0000   0.0000   0.3529
  22.000   1.1540   0.29900   0.29409  -0.1681  0.0758  0.9999  -1.9066   0.0000   0.0000   0.0000   0.3668
  23.000   1.1959   0.31590   0.31117  -0.1717  0.0670  0.9999  -2.1430   0.0000   0.0000   0.0000   0.3623
  24.000   0.8068   0.28508   0.28102  -0.1067  0.0662  0.9999  -1.3131   0.0000   0.0000   0.0000   0.3572
  25.000   0.7928   0.29107   0.28705  -0.1154  0.0636  0.9999  -1.1257   0.0000   0.0000   0.0000   0.3694
  26.000   0.8035   0.30462   0.30069  -0.1205  0.0557  0.9999  -1.1359   0.0000   0.0000   0.0000   0.3719
  27.000   0.8311   0.32746   0.32361  -0.1224  0.0511  0.9999  -1.3228   0.0000   0.0000   0.0000   0.3667
  28.000   0.8226   0.33465   0.33086  -0.1304  0.0486  0.9999  -1.1601   0.0000   0.0000   0.0000   0.3763
  29.000   0.8309   0.34905   0.34540  -0.1354  0.0418  0.9999  -1.1603   0.0000   0.0000   0.0000   0.3786


