xflr5 v6.61

 Calculated polar for: TJ1_9_00

 1 1 Reynolds number fixed          Mach number fixed         

 xtrf =   1.000 (top)        1.000 (bottom)
 Mach =   0.200     Re =     0.080 e 6     Ncrit =   9.000

  alpha     CL        CD       CDp       Cm    Top Xtr Bot Xtr   Cpmin    Chinge    XCp    
 ------- -------- --------- --------- -------- ------- ------- -------- --------- ---------
 -26.000  -0.9418   0.33241   0.32631   0.1111  1.0001  0.0287  -1.7365   0.0000   0.0000   0.0000   0.3460
 -25.000  -0.9076   0.31995   0.31381   0.1018  1.0001  0.0311  -1.6515   0.0000   0.0000   0.0000   0.3420
 -24.000  -0.8722   0.30801   0.30179   0.0920  1.0001  0.0349  -1.5897   0.0000   0.0000   0.0000   0.3369
 -23.000  -0.8359   0.29858   0.29234   0.0809  1.0001  0.0385  -1.6009   0.0000   0.0000   0.0000   0.3297
 -22.000  -0.8062   0.29844   0.29221   0.0680  1.0001  0.0395  -1.7212   0.0000   0.0000   0.0000   0.3189
 -21.000  -0.7680   0.27701   0.27080   0.0603  1.0001  0.0405  -1.6894   0.0000   0.0000   0.0000   0.3140
 -20.000  -0.7268   0.25757   0.25132   0.0550  1.0001  0.0439  -1.5140   0.0000   0.0000   0.0000   0.3122
 -19.000  -0.6896   0.24472   0.23842   0.0470  1.0001  0.0483  -1.4377   0.0000   0.0000   0.0000   0.3058
 -18.000  -0.6570   0.23661   0.23033   0.0364  1.0001  0.0543  -1.4644   0.0000   0.0000   0.0000   0.2941
 -17.000  -0.6382   0.23159   0.22543   0.0255  1.0001  0.0555  -1.6269   0.0000   0.0000   0.0000   0.2797
 -16.000  -0.5833   0.20525   0.19904   0.0239  1.0001  0.0612  -1.4143   0.0000   0.0000   0.0000   0.2811
 -15.000  -0.5506   0.19276   0.18652   0.0168  1.0001  0.0683  -1.4070   0.0000   0.0000   0.0000   0.2714
 -14.000  -0.5482   0.19010   0.18398   0.0053  1.0001  0.0715  -1.5938   0.0000   0.0000   0.0000   0.2516
 -13.000  -0.4906   0.16543   0.15932   0.0048  1.0001  0.0774  -1.3499   0.0000   0.0000   0.0000   0.2518
 -12.000  -0.4719   0.15468   0.14865  -0.0024  1.0001  0.0870  -1.3659   0.0000   0.0000   0.0000   0.2376
 -11.000  -0.4448   0.13912   0.13318  -0.0067  1.0001  0.0918  -1.3613   0.0000   0.0000   0.0000   0.2280
 -10.000  -0.4297   0.12793   0.12208  -0.0131  1.0001  0.1042  -1.4370   0.0000   0.0000   0.0000   0.2132
  -9.000  -0.3978   0.11273   0.10700  -0.0151  1.0001  0.1166  -1.4206   0.0000   0.0000   0.0000   0.2061
  -8.000  -0.3813   0.10018   0.09465  -0.0193  1.0001  0.1340  -1.4798   0.0000   0.0000   0.0000   0.1941
  -7.000  -0.3764   0.08833   0.08308  -0.0214  1.0001  0.1483  -1.5557   0.0000   0.0000   0.0000   0.1886
  -6.000  -0.3883   0.07753   0.07262  -0.0222  1.0001  0.1637  -1.6494   0.0000   0.0000   0.0000   0.1894
  -5.000  -0.3528   0.04583   0.04010  -0.0536  1.0001  0.0838  -2.4562   0.0000   0.0000   0.0000   0.0940
  -4.000  -0.2382   0.02712   0.01891  -0.0650  1.0001  0.0909  -2.5823   0.0000   0.0000   0.0000  -0.0283
  -3.000  -0.1210   0.02141   0.01256  -0.0665  1.0001  0.1656  -2.0876   0.0000   0.0000   0.0000  -0.3071
  -2.000  -0.0080   0.01897   0.01028  -0.0673  1.0001  0.3047  -1.4964   0.0000   0.0000   0.0000  -8.2416
  -1.000   0.1019   0.01761   0.00985  -0.0679  1.0001  0.5345  -0.9003   0.0000   0.0000   0.0000   0.9185
   0.000   0.2117   0.01762   0.01048  -0.0687  0.9847  0.9999  -0.5297   0.0000   0.0000   0.0000   0.5735
   1.000   0.4288   0.01855   0.01088  -0.0880  0.9133  0.9999  -0.7461   0.0000   0.0000   0.0000   0.4533
   2.000   0.5947   0.01709   0.00940  -0.0922  0.8304  0.9999  -0.9650   0.0000   0.0000   0.0000   0.4023
   3.000   0.7173   0.01563   0.00760  -0.0864  0.7014  0.9999  -1.1825   0.0000   0.0000   0.0000   0.3668
   4.000   0.8195   0.01724   0.00819  -0.0803  0.5282  0.9999  -1.4005   0.0000   0.0000   0.0000   0.3436
   5.000   0.9214   0.02017   0.01052  -0.0769  0.4121  0.9999  -1.6508   0.0000   0.0000   0.0000   0.3281
   6.000   1.0250   0.02358   0.01373  -0.0744  0.3385  0.9999  -2.0061   0.0000   0.0000   0.0000   0.3161
   7.000   1.1262   0.02771   0.01803  -0.0718  0.2829  0.9999  -2.7090   0.0000   0.0000   0.0000   0.3061
   8.000   1.2209   0.03248   0.02329  -0.0684  0.2342  0.9999  -3.4479   0.0000   0.0000   0.0000   0.2972
   9.000   1.2987   0.03839   0.03011  -0.0631  0.1884  0.9999  -4.1291   0.0000   0.0000   0.0000   0.2885
  10.000   1.3583   0.04293   0.03532  -0.0560  0.1387  0.9999  -4.7947   0.0000   0.0000   0.0000   0.2795
  11.000   1.3755   0.04886   0.04175  -0.0455  0.0927  0.9999  -5.2659   0.0000   0.0000   0.0000   0.2698
  12.000   1.3286   0.06172   0.05547  -0.0357  0.0740  0.9999  -5.2699   0.0000   0.0000   0.0000   0.2622
  13.000   1.2568   0.08268   0.07717  -0.0399  0.0684  0.9999  -5.0870   0.0000   0.0000   0.0000   0.2655
  14.000   1.0024   0.16682   0.16145  -0.0932  0.1106  0.9999  -2.6972   0.0000   0.0000   0.0000   0.3285
  15.000   1.0078   0.18832   0.18295  -0.1018  0.0963  0.9999  -2.5005   0.0000   0.0000   0.0000   0.3354
  16.000   1.0055   0.21730   0.21189  -0.1186  0.1287  0.9999  -1.9960   0.0000   0.0000   0.0000   0.3518
  17.000   1.0464   0.23752   0.23217  -0.1225  0.1139  0.9999  -2.0557   0.0000   0.0000   0.0000   0.3494
  18.000   1.0564   0.24813   0.24278  -0.1368  0.1027  0.9999  -1.8775   0.0000   0.0000   0.0000   0.3603
  19.000   1.0953   0.26842   0.26312  -0.1421  0.0973  0.9999  -1.9902   0.0000   0.0000   0.0000   0.3589
  20.000   1.1191   0.27849   0.27320  -0.1548  0.0855  0.9999  -1.9382   0.0000   0.0000   0.0000   0.3656
  21.000   1.1514   0.29482   0.28953  -0.1638  0.0801  0.9999  -1.9970   0.0000   0.0000   0.0000   0.3677
  22.000   1.1830   0.30735   0.30212  -0.1746  0.0703  0.9999  -2.0401   0.0000   0.0000   0.0000   0.3710
  23.000   1.2245   0.33449   0.32940  -0.1782  0.0659  0.9999  -2.2361   0.0000   0.0000   0.0000   0.3669
  24.000   1.2472   0.33532   0.33021  -0.1957  0.0584  0.9999  -2.0678   0.0000   0.0000   0.0000   0.3760
  25.000   1.2831   0.35393   0.34895  -0.2012  0.0520  0.9999  -2.3216   0.0000   0.0000   0.0000   0.3735
  26.000   1.3118   0.36810   0.36311  -0.2132  0.0504  0.9999  -2.2985   0.0000   0.0000   0.0000   0.3768
  27.000   1.3419   0.37438   0.36942  -0.2276  0.0433  0.9999  -2.2305   0.0000   0.0000   0.0000   0.3813
  28.000   1.3724   0.38812   0.38332  -0.2359  0.0385  0.9999  -2.3649   0.0000   0.0000   0.0000   0.3808
  29.000   1.4019   0.41561   0.41086  -0.2431  0.0369  0.9999  -2.4248   0.0000   0.0000   0.0000   0.3796
  30.000   1.4289   0.40960   0.40487  -0.2606  0.0347  0.9999  -2.2124   0.0000   0.0000   0.0000   0.3855


