xflr5 v6.61

 Calculated polar for: TJ1_7_77

 1 1 Reynolds number fixed          Mach number fixed         

 xtrf =   1.000 (top)        1.000 (bottom)
 Mach =   0.200     Re =     0.025 e 6     Ncrit =   9.000

  alpha     CL        CD       CDp       Cm    Top Xtr Bot Xtr   Cpmin    Chinge    XCp    
 ------- -------- --------- --------- -------- ------- ------- -------- --------- ---------
 -28.000  -1.0246   0.36127   0.35089   0.1324  1.0001  0.0764  -1.7106   0.0000   0.0000   0.0000   0.3563
 -27.000  -0.9928   0.34986   0.33931   0.1222  1.0001  0.0829  -1.6454   0.0000   0.0000   0.0000   0.3522
 -26.000  -0.9621   0.34735   0.33676   0.1102  1.0001  0.0877  -1.6740   0.0000   0.0000   0.0000   0.3455
 -25.000  -0.9276   0.32893   0.31831   0.1014  1.0001  0.0915  -1.6282   0.0000   0.0000   0.0000   0.3418
 -24.000  -0.8925   0.31537   0.30458   0.0925  1.0001  0.1000  -1.5717   0.0000   0.0000   0.0000   0.3376
 -23.000  -0.8648   0.31817   0.30740   0.0802  1.0001  0.1053  -1.5988   0.0000   0.0000   0.0000   0.3285
 -22.000  -0.8224   0.29120   0.28036   0.0742  1.0001  0.1160  -1.4763   0.0000   0.0000   0.0000   0.3269
 -21.000  -0.7959   0.29164   0.28090   0.0629  1.0001  0.1228  -1.5335   0.0000   0.0000   0.0000   0.3173
 -20.000  -0.7518   0.26734   0.25651   0.0571  1.0001  0.1354  -1.4454   0.0000   0.0000   0.0000   0.3149
 -19.000  -0.7170   0.25486   0.24397   0.0490  1.0001  0.1444  -1.4199   0.0000   0.0000   0.0000   0.3083
 -18.000  -0.6906   0.25001   0.23918   0.0402  1.0001  0.1568  -1.4203   0.0000   0.0000   0.0000   0.2993
 -17.000  -0.6500   0.23167   0.22085   0.0344  1.0001  0.1726  -1.3338   0.0000   0.0000   0.0000   0.2947
 -16.000  -0.6155   0.21777   0.20701   0.0284  1.0001  0.1891  -1.3139   0.0000   0.0000   0.0000   0.2885
 -15.000  -0.5902   0.20808   0.19734   0.0223  1.0001  0.2084  -1.3321   0.0000   0.0000   0.0000   0.2810
 -14.000  -0.5508   0.19051   0.17984   0.0182  1.0001  0.2324  -1.2911   0.0000   0.0000   0.0000   0.2766
 -13.000  -0.5273   0.17961   0.16905   0.0140  1.0001  0.2597  -1.2848   0.0000   0.0000   0.0000   0.2707
 -12.000  -0.4937   0.16430   0.15385   0.0111  1.0001  0.2903  -1.2391   0.0000   0.0000   0.0000   0.2668
 -11.000  -0.4699   0.15172   0.14136   0.0089  1.0001  0.3278  -1.2062   0.0000   0.0000   0.0000   0.2637
 -10.000  -0.4408   0.13766   0.12746   0.0082  1.0001  0.3782  -1.1688   0.0000   0.0000   0.0000   0.2635
  -9.000  -0.4189   0.12537   0.11538   0.0099  1.0001  0.4521  -1.1898   0.0000   0.0000   0.0000   0.2687
  -8.000  -0.3723   0.10894   0.09904   0.0122  1.0001  0.5502  -1.1828   0.0000   0.0000   0.0000   0.2777
  -7.000  -0.3056   0.09119   0.08139   0.0154  1.0001  0.7228  -1.1535   0.0000   0.0000   0.0000   0.2948
  -6.000  -0.0964   0.05980   0.04948  -0.0165  1.0001  0.9999  -1.0477   0.0000   0.0000   0.0000   0.0637
  -5.000  -0.3004   0.07227   0.06322   0.0154  1.0001  0.6655  -1.2739   0.0000   0.0000   0.0000   0.2975
  -4.000  -0.3102   0.05794   0.04891  -0.0343  1.0001  0.2725  -1.7370   0.0000   0.0000   0.0000   0.1375
  -3.000  -0.1849   0.04055   0.03015  -0.0530  1.0001  0.2882  -1.7629   0.0000   0.0000   0.0000  -0.0395
  -2.000  -0.0664   0.02983   0.01874  -0.0536  1.0001  0.4982  -1.6017   0.0000   0.0000   0.0000  -0.5646
  -1.000   0.0519   0.02288   0.01120  -0.0536  1.0001  0.9999  -1.2005   0.0000   0.0000   0.0000   1.2867
   0.000   0.1601   0.02402   0.01045  -0.0558  1.0001  0.9999  -0.6352   0.0000   0.0000   0.0000   0.5977
   1.000   0.2555   0.02595   0.01156  -0.0565  1.0001  0.9999  -0.5444   0.0000   0.0000   0.0000   0.4692
   2.000   0.3402   0.02909   0.01446  -0.0577  1.0001  0.9999  -0.6510   0.0000   0.0000   0.0000   0.4170
   3.000   0.4089   0.03443   0.01995  -0.0608  1.0001  0.9999  -0.7458   0.0000   0.0000   0.0000   0.3954
   4.000   0.5666   0.04509   0.03131  -0.0855  0.9144  0.9999  -0.9170   0.0000   0.0000   0.0000   0.3970
   5.000   0.7740   0.05194   0.03931  -0.1008  0.7231  0.9999  -1.2243   0.0000   0.0000   0.0000   0.3760
   6.000   0.8911   0.05857   0.04685  -0.0975  0.6002  0.9999  -1.5076   0.0000   0.0000   0.0000   0.3545
   7.000   0.9324   0.07221   0.06100  -0.0950  0.5252  0.9999  -1.8190   0.0000   0.0000   0.0000   0.3462
   8.000   0.9184   0.09192   0.08089  -0.0975  0.4913  0.9999  -1.8686   0.0000   0.0000   0.0000   0.3497
   9.000   0.8776   0.11332   0.10231  -0.1040  0.5029  0.9999  -1.7548   0.0000   0.0000   0.0000   0.3612
  10.000   0.7920   0.13564   0.12451  -0.1210  0.7521  0.9999  -1.4067   0.0000   0.0000   0.0000   0.3942
  11.000   0.8362   0.15272   0.14203  -0.1228  0.6655  0.9999  -1.6067   0.0000   0.0000   0.0000   0.3875
  12.000   0.8783   0.17020   0.15999  -0.1237  0.5793  0.9999  -1.7645   0.0000   0.0000   0.0000   0.3806
  13.000   0.9080   0.18625   0.17634  -0.1246  0.5091  0.9999  -1.8266   0.0000   0.0000   0.0000   0.3760
  14.000   0.9450   0.20473   0.19509  -0.1265  0.4413  0.9999  -1.8506   0.0000   0.0000   0.0000   0.3717
  15.000   0.9634   0.21689   0.20727  -0.1293  0.3814  0.9999  -1.8071   0.0000   0.0000   0.0000   0.3709
  16.000   0.9962   0.23309   0.22361  -0.1335  0.3316  0.9999  -1.7759   0.0000   0.0000   0.0000   0.3695
  17.000   1.0282   0.24836   0.23892  -0.1394  0.2963  0.9999  -1.7446   0.0000   0.0000   0.0000   0.3696
  18.000   1.0650   0.26584   0.25645  -0.1453  0.2657  0.9999  -1.7970   0.0000   0.0000   0.0000   0.3690
  19.000   1.0940   0.27768   0.26833  -0.1535  0.2423  0.9999  -1.8024   0.0000   0.0000   0.0000   0.3712
  20.000   1.1321   0.29532   0.28616  -0.1601  0.2180  0.9999  -1.8776   0.0000   0.0000   0.0000   0.3707
  21.000   1.1715   0.31742   0.30833  -0.1669  0.1987  0.9999  -1.9723   0.0000   0.0000   0.0000   0.3700
  22.000   1.2010   0.32734   0.31834  -0.1765  0.1826  0.9999  -1.9948   0.0000   0.0000   0.0000   0.3725
  23.000   1.2297   0.33546   0.32648  -0.1872  0.1684  0.9999  -1.9867   0.0000   0.0000   0.0000   0.3758
  24.000   1.2611   0.34735   0.33854  -0.1974  0.1543  0.9999  -1.9899   0.0000   0.0000   0.0000   0.3778
  25.000   1.2934   0.36137   0.35262  -0.2072  0.1435  0.9999  -2.0618   0.0000   0.0000   0.0000   0.3792
  26.000   1.3309   0.39010   0.38152  -0.2135  0.1309  0.9999  -2.1885   0.0000   0.0000   0.0000   0.3773
  27.000   1.3553   0.38548   0.37694  -0.2280  0.1220  0.9999  -2.1458   0.0000   0.0000   0.0000   0.3824
  28.000   1.3864   0.40398   0.39565  -0.2369  0.1132  0.9999  -2.1996   0.0000   0.0000   0.0000   0.3824
  29.000   1.4141   0.40887   0.40066  -0.2492  0.1032  0.9999  -2.1866   0.0000   0.0000   0.0000   0.3849
  30.000   1.4428   0.43121   0.42312  -0.2577  0.0974  0.9999  -2.2292   0.0000   0.0000   0.0000   0.3845


