xflr5 v6.61

 Calculated polar for: TJ1_7_00

 1 1 Reynolds number fixed          Mach number fixed         

 xtrf =   1.000 (top)        1.000 (bottom)
 Mach =   0.200     Re =     0.050 e 6     Ncrit =   9.000

  alpha     CL        CD       CDp       Cm    Top Xtr Bot Xtr   Cpmin    Chinge    XCp    
 ------- -------- --------- --------- -------- ------- ------- -------- --------- ---------
 -30.000  -1.0954   0.38612   0.37897   0.1585  1.0001  0.0277  -1.9138   0.0000   0.0000   0.0000   0.3690
 -29.000  -1.0673   0.37081   0.36357   0.1492  1.0001  0.0300  -1.8149   0.0000   0.0000   0.0000   0.3662
 -28.000  -1.0369   0.35956   0.35224   0.1387  1.0001  0.0326  -1.7634   0.0000   0.0000   0.0000   0.3622
 -27.000  -1.0050   0.34848   0.34104   0.1281  1.0001  0.0353  -1.7200   0.0000   0.0000   0.0000   0.3578
 -26.000  -0.9715   0.33906   0.33156   0.1170  1.0001  0.0381  -1.6912   0.0000   0.0000   0.0000   0.3526
 -25.000  -0.9398   0.34009   0.33258   0.1039  1.0001  0.0394  -1.7405   0.0000   0.0000   0.0000   0.3445
 -24.000  -0.9069   0.32659   0.31911   0.0937  1.0001  0.0402  -1.7578   0.0000   0.0000   0.0000   0.3388
 -23.000  -0.8689   0.30068   0.29304   0.0881  1.0001  0.0444  -1.5888   0.0000   0.0000   0.0000   0.3379
 -22.000  -0.8331   0.28823   0.28055   0.0790  1.0001  0.0493  -1.5325   0.0000   0.0000   0.0000   0.3326
 -21.000  -0.7977   0.27910   0.27141   0.0686  1.0001  0.0538  -1.5220   0.0000   0.0000   0.0000   0.3251
 -20.000  -0.7737   0.28325   0.27563   0.0560  1.0001  0.0551  -1.6300   0.0000   0.0000   0.0000   0.3129
 -19.000  -0.7253   0.25029   0.24255   0.0525  1.0001  0.0599  -1.4712   0.0000   0.0000   0.0000   0.3135
 -18.000  -0.6890   0.23740   0.22965   0.0448  1.0001  0.0666  -1.4450   0.0000   0.0000   0.0000   0.3069
 -17.000  -0.6644   0.23410   0.22642   0.0339  1.0001  0.0712  -1.5330   0.0000   0.0000   0.0000   0.2940
 -16.000  -0.6201   0.21112   0.20345   0.0300  1.0001  0.0784  -1.3834   0.0000   0.0000   0.0000   0.2918
 -15.000  -0.5956   0.20346   0.19580   0.0213  1.0001  0.0876  -1.4022   0.0000   0.0000   0.0000   0.2800
 -14.000  -0.5573   0.18503   0.17741   0.0170  1.0001  0.0942  -1.3147   0.0000   0.0000   0.0000   0.2751
 -13.000  -0.5410   0.17722   0.16970   0.0094  1.0001  0.1047  -1.4068   0.0000   0.0000   0.0000   0.2626
 -12.000  -0.5018   0.15864   0.15117   0.0065  1.0001  0.1156  -1.3538   0.0000   0.0000   0.0000   0.2584
 -11.000  -0.4814   0.14609   0.13870   0.0011  1.0001  0.1264  -1.3899   0.0000   0.0000   0.0000   0.2482
 -10.000  -0.4853   0.14024   0.13307  -0.0071  1.0001  0.1398  -1.5075   0.0000   0.0000   0.0000   0.2319
  -9.000  -0.4656   0.12683   0.11984  -0.0114  1.0001  0.1571  -1.4893   0.0000   0.0000   0.0000   0.2226
  -8.000  -0.4138   0.10733   0.10042  -0.0097  1.0001  0.1827  -1.2992   0.0000   0.0000   0.0000   0.2236
  -7.000  -0.4002   0.09586   0.08920  -0.0114  1.0001  0.2148  -1.2530   0.0000   0.0000   0.0000   0.2189
  -6.000  -0.3874   0.08481   0.07848  -0.0112  1.0001  0.2554  -1.2554   0.0000   0.0000   0.0000   0.2190
  -5.000  -0.3727   0.07361   0.06761  -0.0096  1.0001  0.3067  -1.2751   0.0000   0.0000   0.0000   0.2224
  -4.000  -0.2726   0.05130   0.04451  -0.0493  1.0001  0.1730  -1.6588   0.0000   0.0000   0.0000   0.0675
  -3.000  -0.1230   0.03104   0.02160  -0.0671  1.0001  0.1224  -1.9800   0.0000   0.0000   0.0000  -0.2993
  -2.000   0.0024   0.02234   0.01200  -0.0688  1.0001  0.1968  -1.7997   0.0000   0.0000   0.0000  29.0688
  -1.000   0.0996   0.01653   0.00826  -0.0624  1.0001  0.9999  -1.2920   0.0000   0.0000   0.0000   0.8781
   0.000   0.2074   0.01764   0.00794  -0.0635  1.0001  0.9999  -0.6632   0.0000   0.0000   0.0000   0.5556
   1.000   0.3049   0.01950   0.00924  -0.0642  1.0001  0.9999  -0.5522   0.0000   0.0000   0.0000   0.4589
   2.000   0.3909   0.02270   0.01235  -0.0658  1.0001  0.9999  -0.6654   0.0000   0.0000   0.0000   0.4159
   3.000   0.6511   0.02483   0.01509  -0.0937  0.8751  0.9999  -0.9814   0.0000   0.0000   0.0000   0.3910
   4.000   0.8158   0.02161   0.01235  -0.0894  0.7035  0.9999  -1.3258   0.0000   0.0000   0.0000   0.3561
   5.000   0.9196   0.02375   0.01388  -0.0803  0.5128  0.9999  -1.9047   0.0000   0.0000   0.0000   0.3329
   6.000   1.0187   0.02865   0.01859  -0.0752  0.3880  0.9999  -2.6649   0.0000   0.0000   0.0000   0.3184
   7.000   1.1097   0.03508   0.02560  -0.0700  0.2878  0.9999  -3.4080   0.0000   0.0000   0.0000   0.3066
   8.000   1.1805   0.04306   0.03422  -0.0622  0.1787  0.9999  -4.0578   0.0000   0.0000   0.0000   0.2950
   9.000   1.2132   0.05477   0.04684  -0.0529  0.1040  0.9999  -4.2188   0.0000   0.0000   0.0000   0.2848
  10.000   1.1834   0.07431   0.06765  -0.0465  0.0963  0.9999  -4.0586   0.0000   0.0000   0.0000   0.2797
  13.000   0.7183   0.15465   0.14848  -0.0759  0.2665  0.9999  -1.5583   0.0000   0.0000   0.0000   0.3468
  14.000   0.7095   0.16411   0.15797  -0.0779  0.2223  0.9999  -1.4198   0.0000   0.0000   0.0000   0.3502
  15.000   0.7188   0.17707   0.17095  -0.0808  0.1946  0.9999  -1.3298   0.0000   0.0000   0.0000   0.3519
  16.000   0.7272   0.18937   0.18329  -0.0846  0.1761  0.9999  -1.2438   0.0000   0.0000   0.0000   0.3550
  17.000   0.7386   0.20168   0.19565  -0.0885  0.1560  0.9999  -1.2390   0.0000   0.0000   0.0000   0.3574
  18.000   0.7516   0.21488   0.20896  -0.0927  0.1426  0.9999  -1.2225   0.0000   0.0000   0.0000   0.3597
  19.000   0.7751   0.23190   0.22606  -0.0957  0.1302  0.9999  -1.2649   0.0000   0.0000   0.0000   0.3586
  20.000   0.7846   0.24320   0.23746  -0.1004  0.1161  0.9999  -1.2733   0.0000   0.0000   0.0000   0.3618
  21.000   0.7901   0.25482   0.24911  -0.1062  0.1056  0.9999  -1.2198   0.0000   0.0000   0.0000   0.3669
  22.000   0.8122   0.27367   0.26810  -0.1093  0.0974  0.9999  -1.2683   0.0000   0.0000   0.0000   0.3656
  23.000   0.8153   0.28327   0.27778  -0.1156  0.0879  0.9999  -1.1667   0.0000   0.0000   0.0000   0.3712
  24.000   0.8329   0.30172   0.29631  -0.1192  0.0811  0.9999  -1.2326   0.0000   0.0000   0.0000   0.3708
  25.000   0.8378   0.31277   0.30744  -0.1252  0.0723  0.9999  -1.1907   0.0000   0.0000   0.0000   0.3754
  26.000   0.8608   0.33717   0.33201  -0.1278  0.0661  0.9999  -1.3078   0.0000   0.0000   0.0000   0.3725
  27.000   0.8577   0.34380   0.33871  -0.1348  0.0628  0.9999  -1.1659   0.0000   0.0000   0.0000   0.3793
  28.000   0.8667   0.35894   0.35397  -0.1396  0.0550  0.9999  -1.1446   0.0000   0.0000   0.0000   0.3810
  29.000   0.8821   0.38227   0.37739  -0.1427  0.0509  0.9999  -1.1908   0.0000   0.0000   0.0000   0.3796
  30.000   0.8808   0.39095   0.38616  -0.1493  0.0486  0.9999  -1.0453   0.0000   0.0000   0.0000   0.3849


