xflr5 v6.61

 Calculated polar for: TJ1_13_00

 1 1 Reynolds number fixed          Mach number fixed         

 xtrf =   1.000 (top)        1.000 (bottom)
 Mach =   0.200     Re =     0.075 e 6     Ncrit =   9.000

  alpha     CL        CD       CDp       Cm    Top Xtr Bot Xtr   Cpmin    Chinge    XCp    
 ------- -------- --------- --------- -------- ------- ------- -------- --------- ---------
 -23.000  -0.7656   0.28671   0.27993   0.0657  1.0001  0.0580  -1.5529   0.0000   0.0000   0.0000   0.3103
 -22.000  -0.7263   0.27398   0.26718   0.0578  1.0001  0.0622  -1.4699   0.0000   0.0000   0.0000   0.3055
 -21.000  -0.6887   0.26236   0.25557   0.0486  1.0001  0.0681  -1.4313   0.0000   0.0000   0.0000   0.2978
 -20.000  -0.6657   0.26159   0.25485   0.0354  1.0001  0.0714  -1.5270   0.0000   0.0000   0.0000   0.2821
 -19.000  -0.6171   0.23747   0.23071   0.0307  1.0001  0.0741  -1.4335   0.0000   0.0000   0.0000   0.2792
 -18.000  -0.5759   0.22400   0.21725   0.0244  1.0001  0.0816  -1.3924   0.0000   0.0000   0.0000   0.2728
 -17.000  -0.5751   0.22622   0.21959   0.0107  1.0001  0.0884  -1.6433   0.0000   0.0000   0.0000   0.2510
 -16.000  -0.5050   0.19808   0.19144   0.0101  1.0001  0.0972  -1.4377   0.0000   0.0000   0.0000   0.2520
 -15.000  -0.5077   0.19521   0.18870  -0.0015  1.0001  0.1053  -1.6541   0.0000   0.0000   0.0000   0.2306
 -14.000  -0.4417   0.17170   0.16516  -0.0024  1.0001  0.1153  -1.4704   0.0000   0.0000   0.0000   0.2279
 -13.000  -0.4154   0.15852   0.15206  -0.0079  1.0001  0.1287  -1.4821   0.0000   0.0000   0.0000   0.2149
 -12.000  -0.4162   0.14801   0.14168  -0.0159  1.0001  0.1408  -1.6084   0.0000   0.0000   0.0000   0.1970
 -11.000  -0.4062   0.13637   0.13015  -0.0215  1.0001  0.1568  -1.6421   0.0000   0.0000   0.0000   0.1833
 -10.000  -0.3544   0.11901   0.11281  -0.0209  1.0001  0.1792  -1.5244   0.0000   0.0000   0.0000   0.1772
  -9.000  -0.3358   0.10625   0.10016  -0.0232  1.0001  0.2006  -1.5216   0.0000   0.0000   0.0000   0.1678
  -8.000  -0.3912   0.09894   0.09325  -0.0257  1.0001  0.2265  -1.7013   0.0000   0.0000   0.0000   0.1746
  -7.000  -0.4546   0.07657   0.07112  -0.0305  1.0001  0.1759  -2.0740   0.0000   0.0000   0.0000   0.1747
  -6.000  -0.4934   0.04336   0.03665  -0.0512  1.0001  0.1557  -2.6287   0.0000   0.0000   0.0000   0.1384
  -5.000  -0.4164   0.03545   0.02809  -0.0517  1.0001  0.1828  -2.2384   0.0000   0.0000   0.0000   0.1184
  -4.000  -0.3174   0.02993   0.02173  -0.0538  1.0001  0.2210  -1.8456   0.0000   0.0000   0.0000   0.0726
  -3.000  -0.2167   0.02711   0.01839  -0.0552  1.0001  0.2651  -1.4809   0.0000   0.0000   0.0000  -0.0133
  -2.000  -0.0427   0.02610   0.01729  -0.0690  0.9719  0.3356  -1.1115   0.0000   0.0000   0.0000  -1.3953
  -1.000   0.1576   0.02480   0.01639  -0.0844  0.9115  0.4481  -0.7622   0.0000   0.0000   0.0000   0.7882
   0.000   0.3241   0.02200   0.01484  -0.0884  0.8475  0.6934  -0.8036   0.0000   0.0000   0.0000   0.5213
   1.000   0.4675   0.01871   0.01167  -0.0851  0.7736  0.9999  -0.9854   0.0000   0.0000   0.0000   0.4289
   2.000   0.5963   0.01765   0.00974  -0.0822  0.6672  0.9999  -1.1743   0.0000   0.0000   0.0000   0.3835
   3.000   0.7058   0.01893   0.00999  -0.0785  0.5480  0.9999  -1.3562   0.0000   0.0000   0.0000   0.3558
   4.000   0.8132   0.02127   0.01156  -0.0760  0.4604  0.9999  -1.5467   0.0000   0.0000   0.0000   0.3370
   5.000   0.9192   0.02423   0.01419  -0.0740  0.3998  0.9999  -1.7549   0.0000   0.0000   0.0000   0.3231
   6.000   1.0245   0.02769   0.01749  -0.0723  0.3560  0.9999  -1.9751   0.0000   0.0000   0.0000   0.3119
   7.000   1.1235   0.03193   0.02184  -0.0700  0.3210  0.9999  -2.2071   0.0000   0.0000   0.0000   0.3025
   8.000   1.2068   0.03733   0.02782  -0.0662  0.2907  0.9999  -2.4205   0.0000   0.0000   0.0000   0.2939
   9.000   1.2886   0.04381   0.03462  -0.0628  0.2679  0.9999  -2.6970   0.0000   0.0000   0.0000   0.2864
  10.000   1.3070   0.05410   0.04592  -0.0549  0.2478  0.9999  -2.8426   0.0000   0.0000   0.0000   0.2785
  14.000   0.8838   0.18214   0.17535  -0.1003  0.2542  0.9999  -1.4686   0.0000   0.0000   0.0000   0.3472
  15.000   0.9399   0.19920   0.19258  -0.1019  0.2336  0.9999  -1.6072   0.0000   0.0000   0.0000   0.3406
  16.000   0.9757   0.21665   0.21014  -0.1065  0.2159  0.9999  -1.7936   0.0000   0.0000   0.0000   0.3398
  17.000   0.9778   0.22623   0.21983  -0.1158  0.1978  0.9999  -1.8155   0.0000   0.0000   0.0000   0.3474
  20.000   0.6995   0.21675   0.21138  -0.0860  0.1537  0.9999  -1.2248   0.0000   0.0000   0.0000   0.3537
  21.000   0.7138   0.22907   0.22384  -0.0904  0.1366  0.9999  -1.2072   0.0000   0.0000   0.0000   0.3560
  22.000   0.7281   0.24205   0.23693  -0.0947  0.1189  0.9999  -1.1394   0.0000   0.0000   0.0000   0.3581
  23.000   0.7392   0.25599   0.25094  -0.0998  0.1101  0.9999  -1.0853   0.0000   0.0000   0.0000   0.3615
  25.000   1.2185   0.33295   0.32726  -0.1895  0.0864  0.9999  -1.9332   0.0000   0.0000   0.0000   0.3672
  26.000   1.2625   0.36305   0.35754  -0.1922  0.0818  0.9999  -2.1534   0.0000   0.0000   0.0000   0.3614
  27.000   1.2796   0.35798   0.35247  -0.2111  0.0745  0.9999  -2.0247   0.0000   0.0000   0.0000   0.3712
  28.000   1.3127   0.37089   0.36551  -0.2191  0.0680  0.9999  -2.1699   0.0000   0.0000   0.0000   0.3700
  29.000   1.3440   0.39425   0.38893  -0.2268  0.0658  0.9999  -2.2998   0.0000   0.0000   0.0000   0.3689
  30.000   1.3676   0.39122   0.38595  -0.2439  0.0583  0.9999  -2.2297   0.0000   0.0000   0.0000   0.3752


