xflr5 v6.61

 Calculated polar for: TJ1_9_00

 1 1 Reynolds number fixed          Mach number fixed         

 xtrf =   1.000 (top)        1.000 (bottom)
 Mach =   0.200     Re =     0.090 e 6     Ncrit =   9.000

  alpha     CL        CD       CDp       Cm    Top Xtr Bot Xtr   Cpmin    Chinge    XCp    
 ------- -------- --------- --------- -------- ------- ------- -------- --------- ---------
 -30.000  -1.0707   0.37708   0.37153   0.1549  1.0001  0.0202  -1.8715   0.0000   0.0000   0.0000   0.3645
 -29.000  -1.0405   0.36649   0.36087   0.1440  1.0001  0.0223  -1.8173   0.0000   0.0000   0.0000   0.3606
 -28.000  -1.0083   0.35576   0.35010   0.1330  1.0001  0.0247  -1.7787   0.0000   0.0000   0.0000   0.3562
 -27.000  -0.9746   0.35023   0.34449   0.1203  1.0001  0.0262  -1.7946   0.0000   0.0000   0.0000   0.3497
 -26.000  -0.9445   0.35017   0.34442   0.1071  1.0001  0.0266  -1.8744   0.0000   0.0000   0.0000   0.3418
 -25.000  -0.9092   0.32716   0.32140   0.0987  1.0001  0.0273  -1.8241   0.0000   0.0000   0.0000   0.3383
 -24.000  -0.8730   0.30781   0.30201   0.0920  1.0001  0.0296  -1.6367   0.0000   0.0000   0.0000   0.3367
 -23.000  -0.8371   0.29546   0.28958   0.0829  1.0001  0.0331  -1.5523   0.0000   0.0000   0.0000   0.3319
 -22.000  -0.8003   0.28329   0.27738   0.0733  1.0001  0.0365  -1.5585   0.0000   0.0000   0.0000   0.3258
 -21.000  -0.7656   0.27688   0.27097   0.0615  1.0001  0.0391  -1.6362   0.0000   0.0000   0.0000   0.3159
 -20.000  -0.7397   0.27491   0.26904   0.0496  1.0001  0.0397  -1.7239   0.0000   0.0000   0.0000   0.3040
 -19.000  -0.6920   0.24515   0.23923   0.0459  1.0001  0.0419  -1.5280   0.0000   0.0000   0.0000   0.3039
 -18.000  -0.6538   0.23124   0.22532   0.0392  1.0001  0.0463  -1.3964   0.0000   0.0000   0.0000   0.2986
 -17.000  -0.6193   0.22001   0.21410   0.0303  1.0001  0.0535  -1.4431   0.0000   0.0000   0.0000   0.2884
 -16.000  -0.6066   0.21834   0.21252   0.0185  1.0001  0.0551  -1.6412   0.0000   0.0000   0.0000   0.2711
 -15.000  -0.5524   0.19162   0.18576   0.0167  1.0001  0.0589  -1.4493   0.0000   0.0000   0.0000   0.2711
 -14.000  -0.5189   0.17827   0.17243   0.0111  1.0001  0.0653  -1.3831   0.0000   0.0000   0.0000   0.2629
 -13.000  -0.5095   0.17122   0.16548   0.0010  1.0001  0.0711  -1.5119   0.0000   0.0000   0.0000   0.2442
 -12.000  -0.4684   0.15157   0.14588  -0.0016  1.0001  0.0750  -1.3691   0.0000   0.0000   0.0000   0.2392
 -11.000  -0.4409   0.13842   0.13279  -0.0060  1.0001  0.0845  -1.3327   0.0000   0.0000   0.0000   0.2294
 -10.000  -0.4356   0.12609   0.12060  -0.0148  1.0001  0.0899  -1.5042   0.0000   0.0000   0.0000   0.2099
  -9.000  -0.4022   0.11207   0.10666  -0.0169  1.0001  0.1025  -1.4631   0.0000   0.0000   0.0000   0.2022
  -8.000  -0.3817   0.09882   0.09359  -0.0204  1.0001  0.1166  -1.5003   0.0000   0.0000   0.0000   0.1912
  -7.000  -0.3778   0.08718   0.08224  -0.0225  1.0001  0.1323  -1.5740   0.0000   0.0000   0.0000   0.1859
  -6.000  -0.3921   0.07601   0.07140  -0.0245  1.0001  0.1453  -1.6905   0.0000   0.0000   0.0000   0.1841
  -5.000  -0.3457   0.04014   0.03401  -0.0588  1.0001  0.0709  -2.7293   0.0000   0.0000   0.0000   0.0755
  -4.000  -0.2376   0.02607   0.01818  -0.0649  1.0001  0.0837  -2.6116   0.0000   0.0000   0.0000  -0.0288
  -3.000  -0.1162   0.02020   0.01143  -0.0669  1.0001  0.1560  -2.1283   0.0000   0.0000   0.0000  -0.3340
  -2.000  -0.0042   0.01817   0.00970  -0.0678  1.0001  0.2911  -1.5012   0.0000   0.0000   0.0000  -16.2216
  -1.000   0.1056   0.01706   0.00951  -0.0688  1.0001  0.5064  -0.8993   0.0000   0.0000   0.0000   0.9039
   0.000   0.2579   0.01681   0.00998  -0.0764  0.9660  0.9999  -0.5629   0.0000   0.0000   0.0000   0.5454
   1.000   0.4572   0.01688   0.00965  -0.0911  0.9002  0.9999  -0.7734   0.0000   0.0000   0.0000   0.4473
   2.000   0.6059   0.01526   0.00795  -0.0917  0.8210  0.9999  -0.9810   0.0000   0.0000   0.0000   0.3987
   3.000   0.7188   0.01448   0.00671  -0.0854  0.6803  0.9999  -1.1892   0.0000   0.0000   0.0000   0.3653
   4.000   0.8195   0.01631   0.00749  -0.0800  0.5066  0.9999  -1.4065   0.0000   0.0000   0.0000   0.3431
   5.000   0.9214   0.01912   0.00968  -0.0768  0.3949  0.9999  -1.6591   0.0000   0.0000   0.0000   0.3279
   6.000   1.0250   0.02230   0.01270  -0.0744  0.3241  0.9999  -2.0199   0.0000   0.0000   0.0000   0.3161
   7.000   1.1270   0.02603   0.01655  -0.0720  0.2706  0.9999  -2.7417   0.0000   0.0000   0.0000   0.3062
   8.000   1.2213   0.03036   0.02144  -0.0685  0.2226  0.9999  -3.4880   0.0000   0.0000   0.0000   0.2972
   9.000   1.3055   0.03512   0.02672  -0.0639  0.1775  0.9999  -4.2333   0.0000   0.0000   0.0000   0.2886
  10.000   1.3669   0.03849   0.03065  -0.0567  0.1274  0.9999  -4.9570   0.0000   0.0000   0.0000   0.2797
  11.000   1.3829   0.04428   0.03681  -0.0458  0.0810  0.9999  -5.4355   0.0000   0.0000   0.0000   0.2697
  12.000   1.3503   0.05669   0.05016  -0.0360  0.0627  0.9999  -5.4957   0.0000   0.0000   0.0000   0.2617
  13.000   1.2735   0.07876   0.07335  -0.0395  0.0595  0.9999  -5.2406   0.0000   0.0000   0.0000   0.2645
  14.000   1.1243   0.12539   0.12069  -0.0683  0.0674  0.9999  -4.2255   0.0000   0.0000   0.0000   0.2937
  15.000   1.0131   0.18324   0.17819  -0.1005  0.0793  0.9999  -2.6453   0.0000   0.0000   0.0000   0.3332
  16.000   1.0250   0.20709   0.20201  -0.1106  0.0809  0.9999  -2.3886   0.0000   0.0000   0.0000   0.3410
  17.000   0.7537   0.19612   0.19153  -0.0785  0.1142  0.9999  -1.4998   0.0000   0.0000   0.0000   0.3399
  18.000   0.7351   0.20370   0.19912  -0.0864  0.1016  0.9999  -1.2863   0.0000   0.0000   0.0000   0.3526
  19.000   0.7498   0.21873   0.21419  -0.0907  0.0966  0.9999  -1.2349   0.0000   0.0000   0.0000   0.3548
  20.000   0.7582   0.23040   0.22592  -0.0961  0.0854  0.9999  -1.2043   0.0000   0.0000   0.0000   0.3594
  21.000   0.7744   0.24603   0.24165  -0.1002  0.0808  0.9999  -1.2173   0.0000   0.0000   0.0000   0.3606
  22.000   0.7825   0.25757   0.25326  -0.1059  0.0698  0.9999  -1.1987   0.0000   0.0000   0.0000   0.3651
  23.000   0.8070   0.27756   0.27331  -0.1086  0.0659  0.9999  -1.3187   0.0000   0.0000   0.0000   0.3626
  24.000   0.8042   0.28633   0.28214  -0.1163  0.0599  0.9999  -1.1670   0.0000   0.0000   0.0000   0.3712
  25.000   0.8260   0.30345   0.29942  -0.1188  0.0518  0.9999  -1.3121   0.0000   0.0000   0.0000   0.3683
  26.000   0.8302   0.31806   0.31406  -0.1249  0.0503  0.9999  -1.2522   0.0000   0.0000   0.0000   0.3732
  27.000   0.8357   0.33094   0.32702  -0.1310  0.0442  0.9999  -1.1840   0.0000   0.0000   0.0000   0.3778
  28.000   0.8491   0.34670   0.34287  -0.1346  0.0382  0.9999  -1.2739   0.0000   0.0000   0.0000   0.3772
  29.000   0.8597   0.36693   0.36315  -0.1389  0.0368  0.9999  -1.2513   0.0000   0.0000   0.0000   0.3780
  30.000   0.8600   0.37762   0.37396  -0.1456  0.0341  0.9999  -1.0807   0.0000   0.0000   0.0000   0.3836


