xflr5 v6.61

 Calculated polar for: TJ1_8_00

 1 1 Reynolds number fixed          Mach number fixed         

 xtrf =   1.000 (top)        1.000 (bottom)
 Mach =   0.200     Re =     0.070 e 6     Ncrit =   9.000

  alpha     CL        CD       CDp       Cm    Top Xtr Bot Xtr   Cpmin    Chinge    XCp    
 ------- -------- --------- --------- -------- ------- ------- -------- --------- ---------
 -26.000  -0.9574   0.33517   0.32876   0.1145  1.0001  0.0286  -1.7232   0.0000   0.0000   0.0000   0.3496
 -25.000  -0.9236   0.32239   0.31593   0.1052  1.0001  0.0310  -1.6558   0.0000   0.0000   0.0000   0.3456
 -24.000  -0.8886   0.31030   0.30374   0.0954  1.0001  0.0338  -1.6110   0.0000   0.0000   0.0000   0.3407
 -23.000  -0.8525   0.29935   0.29276   0.0851  1.0001  0.0378  -1.5912   0.0000   0.0000   0.0000   0.3346
 -22.000  -0.8217   0.30031   0.29374   0.0718  1.0001  0.0395  -1.6621   0.0000   0.0000   0.0000   0.3238
 -21.000  -0.7839   0.27901   0.27247   0.0641  1.0001  0.0406  -1.6529   0.0000   0.0000   0.0000   0.3191
 -20.000  -0.7442   0.25994   0.25335   0.0584  1.0001  0.0443  -1.5196   0.0000   0.0000   0.0000   0.3168
 -19.000  -0.7073   0.24708   0.24042   0.0503  1.0001  0.0488  -1.4747   0.0000   0.0000   0.0000   0.3105
 -18.000  -0.6727   0.23697   0.23032   0.0406  1.0001  0.0538  -1.4876   0.0000   0.0000   0.0000   0.3008
 -17.000  -0.6569   0.23768   0.23112   0.0288  1.0001  0.0551  -1.6115   0.0000   0.0000   0.0000   0.2854
 -16.000  -0.6014   0.20768   0.20110   0.0273  1.0001  0.0622  -1.3485   0.0000   0.0000   0.0000   0.2872
 -15.000  -0.5713   0.19669   0.19011   0.0192  1.0001  0.0699  -1.4071   0.0000   0.0000   0.0000   0.2762
 -14.000  -0.5561   0.18811   0.18165   0.0101  1.0001  0.0723  -1.5495   0.0000   0.0000   0.0000   0.2615
 -13.000  -0.5083   0.16788   0.16140   0.0084  1.0001  0.0810  -1.3863   0.0000   0.0000   0.0000   0.2601
 -12.000  -0.5069   0.16237   0.15603  -0.0017  1.0001  0.0881  -1.5453   0.0000   0.0000   0.0000   0.2412
 -11.000  -0.4575   0.14133   0.13498  -0.0021  1.0001  0.0967  -1.3529   0.0000   0.0000   0.0000   0.2400
 -10.000  -0.4684   0.13578   0.12964  -0.0137  1.0001  0.1054  -1.5397   0.0000   0.0000   0.0000   0.2162
  -9.000  -0.4188   0.11632   0.11024  -0.0126  1.0001  0.1199  -1.3281   0.0000   0.0000   0.0000   0.2154
  -8.000  -0.3956   0.10283   0.09692  -0.0159  1.0001  0.1332  -1.3494   0.0000   0.0000   0.0000   0.2057
  -7.000  -0.3943   0.09247   0.08688  -0.0198  1.0001  0.1548  -1.4288   0.0000   0.0000   0.0000   0.1965
  -6.000  -0.3880   0.08047   0.07518  -0.0219  1.0001  0.1778  -1.4821   0.0000   0.0000   0.0000   0.1908
  -5.000  -0.3696   0.06833   0.06319  -0.0278  1.0001  0.2109  -1.5470   0.0000   0.0000   0.0000   0.1726
  -4.000  -0.2416   0.03507   0.02773  -0.0624  1.0001  0.0862  -2.3330   0.0000   0.0000   0.0000  -0.0122
  -3.000  -0.1149   0.02363   0.01432  -0.0674  1.0001  0.1066  -2.2161   0.0000   0.0000   0.0000  -0.3430
  -2.000   0.0049   0.01900   0.01001  -0.0688  1.0001  0.2887  -1.6744   0.0000   0.0000   0.0000  14.2556
  -1.000   0.1069   0.01582   0.00884  -0.0650  1.0001  0.7790  -1.0745   0.0000   0.0000   0.0000   0.8596
   0.000   0.1980   0.01681   0.00890  -0.0637  1.0001  0.9999  -0.5648   0.0000   0.0000   0.0000   0.5711
   1.000   0.3426   0.01929   0.01089  -0.0741  0.9776  0.9999  -0.6247   0.0000   0.0000   0.0000   0.4645
   2.000   0.5661   0.01964   0.01125  -0.0930  0.8903  0.9999  -0.8796   0.0000   0.0000   0.0000   0.4119
   3.000   0.7113   0.01747   0.00926  -0.0906  0.7742  0.9999  -1.1195   0.0000   0.0000   0.0000   0.3742
   4.000   0.8200   0.01761   0.00871  -0.0825  0.5876  0.9999  -1.3578   0.0000   0.0000   0.0000   0.3466
   5.000   0.9206   0.02071   0.01096  -0.0777  0.4404  0.9999  -1.6761   0.0000   0.0000   0.0000   0.3295
   6.000   1.0220   0.02461   0.01482  -0.0746  0.3483  0.9999  -2.3434   0.0000   0.0000   0.0000   0.3170
   7.000   1.1202   0.02935   0.01987  -0.0713  0.2782  0.9999  -3.1008   0.0000   0.0000   0.0000   0.3065
   8.000   1.2098   0.03487   0.02592  -0.0669  0.2139  0.9999  -3.8528   0.0000   0.0000   0.0000   0.2970
   9.000   1.2740   0.03846   0.03000  -0.0596  0.1351  0.9999  -4.6170   0.0000   0.0000   0.0000   0.2870
  10.000   1.3044   0.04845   0.04068  -0.0499  0.0796  0.9999  -4.9059   0.0000   0.0000   0.0000   0.2771
  11.000   1.2914   0.06279   0.05601  -0.0407  0.0664  0.9999  -4.9923   0.0000   0.0000   0.0000   0.2691
  12.000   1.2033   0.08327   0.07757  -0.0404  0.0665  0.9999  -4.6830   0.0000   0.0000   0.0000   0.2700
  13.000   1.0078   0.14949   0.14398  -0.0852  0.0949  0.9999  -2.8735   0.0000   0.0000   0.0000   0.3218
  14.000   1.0061   0.17556   0.16999  -0.0945  0.0975  0.9999  -2.5632   0.0000   0.0000   0.0000   0.3303
  15.000   0.7173   0.17127   0.16599  -0.0765  0.1621  0.9999  -1.4459   0.0000   0.0000   0.0000   0.3454
  16.000   0.7245   0.18454   0.17930  -0.0805  0.1455  0.9999  -1.3463   0.0000   0.0000   0.0000   0.3491
  17.000   0.7352   0.19744   0.19229  -0.0846  0.1290  0.9999  -1.2811   0.0000   0.0000   0.0000   0.3519
  19.000   1.1048   0.27191   0.26635  -0.1470  0.0969  0.9999  -1.9816   0.0000   0.0000   0.0000   0.3632
  20.000   1.1337   0.28353   0.27799  -0.1577  0.0846  0.9999  -2.0246   0.0000   0.0000   0.0000   0.3674
  21.000   1.1656   0.29999   0.29446  -0.1672  0.0803  0.9999  -2.0515   0.0000   0.0000   0.0000   0.3700
  22.000   1.1972   0.31204   0.30655  -0.1782  0.0703  0.9999  -2.0509   0.0000   0.0000   0.0000   0.3734
  23.000   1.2318   0.33101   0.32556  -0.1857  0.0653  0.9999  -2.1250   0.0000   0.0000   0.0000   0.3733
  24.000   1.2619   0.33978   0.33442  -0.1992  0.0573  0.9999  -2.1171   0.0000   0.0000   0.0000   0.3782
  25.000   1.3051   0.38053   0.37532  -0.1996  0.0512  0.9999  -2.4591   0.0000   0.0000   0.0000   0.3712
  26.000   1.3254   0.36832   0.36304  -0.2191  0.0493  0.9999  -2.2297   0.0000   0.0000   0.0000   0.3810
  27.000   1.3567   0.37871   0.37350  -0.2311  0.0426  0.9999  -2.2149   0.0000   0.0000   0.0000   0.3835
  28.000   1.3870   0.39457   0.38954  -0.2390  0.0382  0.9999  -2.3399   0.0000   0.0000   0.0000   0.3827
  29.000   1.4156   0.41819   0.41319  -0.2477  0.0368  0.9999  -2.3447   0.0000   0.0000   0.0000   0.3827
  30.000   1.4434   0.41369   0.40872  -0.2644  0.0342  0.9999  -2.1570   0.0000   0.0000   0.0000   0.3878


