xflr5 v6.61

 Calculated polar for: TJ1_11_00

 1 1 Reynolds number fixed          Mach number fixed         

 xtrf =   1.000 (top)        1.000 (bottom)
 Mach =   0.200     Re =     0.060 e 6     Ncrit =   9.000

  alpha     CL        CD       CDp       Cm    Top Xtr Bot Xtr   Cpmin    Chinge    XCp    
 ------- -------- --------- --------- -------- ------- ------- -------- --------- ---------
 -28.000  -0.9741   0.34998   0.34286   0.1229  1.0001  0.0430  -1.7394   0.0000   0.0000   0.0000   0.3462
 -27.000  -0.9407   0.33831   0.33109   0.1131  1.0001  0.0465  -1.6610   0.0000   0.0000   0.0000   0.3424
 -26.000  -0.9063   0.32719   0.31991   0.1028  1.0001  0.0505  -1.6131   0.0000   0.0000   0.0000   0.3375
 -25.000  -0.8721   0.32022   0.31292   0.0910  1.0001  0.0541  -1.6492   0.0000   0.0000   0.0000   0.3302
 -24.000  -0.8457   0.32512   0.31784   0.0773  1.0001  0.0551  -1.7383   0.0000   0.0000   0.0000   0.3194
 -23.000  -0.8003   0.29204   0.28466   0.0727  1.0001  0.0583  -1.5591   0.0000   0.0000   0.0000   0.3199
 -22.000  -0.7623   0.27912   0.27172   0.0645  1.0001  0.0641  -1.4623   0.0000   0.0000   0.0000   0.3150
 -21.000  -0.7267   0.26940   0.26200   0.0543  1.0001  0.0699  -1.4793   0.0000   0.0000   0.0000   0.3065
 -20.000  -0.7072   0.27322   0.26589   0.0412  1.0001  0.0716  -1.6182   0.0000   0.0000   0.0000   0.2918
 -19.000  -0.6520   0.24192   0.23451   0.0383  1.0001  0.0761  -1.4276   0.0000   0.0000   0.0000   0.2927
 -18.000  -0.6142   0.22934   0.22193   0.0308  1.0001  0.0836  -1.3708   0.0000   0.0000   0.0000   0.2851
 -17.000  -0.6006   0.22895   0.22165   0.0188  1.0001  0.0883  -1.4843   0.0000   0.0000   0.0000   0.2677
 -16.000  -0.5439   0.20326   0.19596   0.0164  1.0001  0.0946  -1.3044   0.0000   0.0000   0.0000   0.2667
 -15.000  -0.5310   0.19853   0.19133   0.0065  1.0001  0.1051  -1.4381   0.0000   0.0000   0.0000   0.2501
 -14.000  -0.4794   0.17759   0.17038   0.0042  1.0001  0.1168  -1.3526   0.0000   0.0000   0.0000   0.2466
 -13.000  -0.4582   0.16526   0.15816  -0.0025  1.0001  0.1253  -1.4358   0.0000   0.0000   0.0000   0.2333
 -12.000  -0.4495   0.15647   0.14950  -0.0091  1.0001  0.1393  -1.5316   0.0000   0.0000   0.0000   0.2195
 -11.000  -0.4090   0.13927   0.13237  -0.0113  1.0001  0.1547  -1.4874   0.0000   0.0000   0.0000   0.2122
 -10.000  -0.4104   0.12958   0.12285  -0.0175  1.0001  0.1740  -1.5904   0.0000   0.0000   0.0000   0.1984
  -9.000  -0.3891   0.11474   0.10819  -0.0203  1.0001  0.1926  -1.5967   0.0000   0.0000   0.0000   0.1895
  -8.000  -0.3537   0.09969   0.09327  -0.0198  1.0001  0.2150  -1.5239   0.0000   0.0000   0.0000   0.1858
  -7.000  -0.3535   0.08897   0.08286  -0.0176  1.0001  0.2504  -1.5191   0.0000   0.0000   0.0000   0.1933
  -6.000  -0.4243   0.06652   0.06064  -0.0355  1.0001  0.1530  -2.1305   0.0000   0.0000   0.0000   0.1609
  -5.000  -0.3788   0.04029   0.03278  -0.0555  1.0001  0.1563  -2.4939   0.0000   0.0000   0.0000   0.0977
  -4.000  -0.2831   0.03189   0.02351  -0.0573  1.0001  0.2056  -2.1359   0.0000   0.0000   0.0000   0.0416
  -3.000  -0.1736   0.02677   0.01771  -0.0591  1.0001  0.2697  -1.6471   0.0000   0.0000   0.0000  -0.0977
  -2.000  -0.0674   0.02438   0.01514  -0.0599  1.0001  0.3544  -1.1917   0.0000   0.0000   0.0000  -0.6505
  -1.000   0.0321   0.02367   0.01477  -0.0603  1.0001  0.4739  -0.8605   0.0000   0.0000   0.0000   2.1435
   0.000   0.1798   0.02292   0.01553  -0.0670  0.9612  0.9999  -0.5929   0.0000   0.0000   0.0000   0.6221
   1.000   0.4108   0.02375   0.01546  -0.0877  0.8735  0.9999  -0.8189   0.0000   0.0000   0.0000   0.4611
   2.000   0.5764   0.02176   0.01323  -0.0897  0.7766  0.9999  -1.0331   0.0000   0.0000   0.0000   0.4024
   3.000   0.7069   0.02036   0.01127  -0.0844  0.6533  0.9999  -1.2436   0.0000   0.0000   0.0000   0.3651
   4.000   0.8153   0.02217   0.01224  -0.0796  0.5304  0.9999  -1.4491   0.0000   0.0000   0.0000   0.3424
   5.000   0.9199   0.02539   0.01504  -0.0765  0.4447  0.9999  -1.6624   0.0000   0.0000   0.0000   0.3270
   6.000   1.0214   0.02954   0.01912  -0.0739  0.3847  0.9999  -1.8854   0.0000   0.0000   0.0000   0.3151
   7.000   1.1177   0.03460   0.02443  -0.0711  0.3386  0.9999  -2.1686   0.0000   0.0000   0.0000   0.3053
   8.000   1.2032   0.04126   0.03163  -0.0676  0.3021  0.9999  -2.4646   0.0000   0.0000   0.0000   0.2967
   9.000   1.2438   0.05155   0.04307  -0.0617  0.2718  0.9999  -2.7917   0.0000   0.0000   0.0000   0.2890
  10.000   1.2422   0.06530   0.05763  -0.0550  0.2483  0.9999  -3.0322   0.0000   0.0000   0.0000   0.2826
  14.000   0.6407   0.15566   0.14905  -0.0696  0.2732  0.9999  -1.0177   0.0000   0.0000   0.0000   0.3474
  15.000   0.6774   0.16993   0.16350  -0.0713  0.2510  0.9999  -1.2068   0.0000   0.0000   0.0000   0.3429
  16.000   0.6683   0.17696   0.17069  -0.0754  0.2269  0.9999  -1.2014   0.0000   0.0000   0.0000   0.3497
  17.000   0.6825   0.18808   0.18197  -0.0791  0.2079  0.9999  -1.2596   0.0000   0.0000   0.0000   0.3515
  18.000   0.7014   0.20003   0.19410  -0.0823  0.1855  0.9999  -1.3051   0.0000   0.0000   0.0000   0.3518
  19.000   0.7269   0.21639   0.21060  -0.0851  0.1641  0.9999  -1.2987   0.0000   0.0000   0.0000   0.3503
  20.000   0.7255   0.22561   0.21995  -0.0908  0.1441  0.9999  -1.1744   0.0000   0.0000   0.0000   0.3572
  21.000   0.7512   0.24274   0.23717  -0.0938  0.1305  0.9999  -1.1975   0.0000   0.0000   0.0000   0.3554
  22.000   0.7584   0.25290   0.24741  -0.0990  0.1161  0.9999  -1.1371   0.0000   0.0000   0.0000   0.3595
  23.000   0.7634   0.26520   0.25977  -0.1050  0.1079  0.9999  -1.0604   0.0000   0.0000   0.0000   0.3652
  24.000   0.7932   0.28489   0.27967  -0.1073  0.0984  0.9999  -1.1774   0.0000   0.0000   0.0000   0.3609
  25.000   0.7880   0.29304   0.28786  -0.1146  0.0931  0.9999  -1.0731   0.0000   0.0000   0.0000   0.3696
  26.000   0.8098   0.31031   0.30527  -0.1176  0.0826  0.9999  -1.1844   0.0000   0.0000   0.0000   0.3672
  27.000   0.8109   0.32220   0.31721  -0.1240  0.0796  0.9999  -1.0997   0.0000   0.0000   0.0000   0.3732
  28.000   0.8198   0.33595   0.33109  -0.1291  0.0709  0.9999  -1.1252   0.0000   0.0000   0.0000   0.3756
  29.000   0.8370   0.35656   0.35185  -0.1323  0.0659  0.9999  -1.2187   0.0000   0.0000   0.0000   0.3738
  30.000   0.8353   0.36618   0.36156  -0.1390  0.0611  0.9999  -1.1070   0.0000   0.0000   0.0000   0.3800


