xflr5 v6.61

 Calculated polar for: TJ1_7_77

 1 1 Reynolds number fixed          Mach number fixed         

 xtrf =   1.000 (top)        1.000 (bottom)
 Mach =   0.200     Re =     0.125 e 6     Ncrit =   9.000

  alpha     CL        CD       CDp       Cm    Top Xtr Bot Xtr   Cpmin    Chinge    XCp    
 ------- -------- --------- --------- -------- ------- ------- -------- --------- ---------
 -19.000  -0.4522   0.19699   0.19260   0.0131  1.0001  0.0293  -1.0171   0.0000   0.0000   0.0000   0.2743
 -18.000  -0.4293   0.18652   0.18211   0.0084  1.0001  0.0322  -0.9710   0.0000   0.0000   0.0000   0.2654
 -17.000  -0.4077   0.17661   0.17214   0.0035  1.0001  0.0359  -0.9505   0.0000   0.0000   0.0000   0.2547
 -16.000  -0.3962   0.17149   0.16702  -0.0029  1.0001  0.0391  -1.0370   0.0000   0.0000   0.0000   0.2392
 -15.000  -0.3986   0.16939   0.16494  -0.0087  1.0001  0.0397  -1.2266   0.0000   0.0000   0.0000   0.2248
 -14.000  -0.3485   0.14724   0.14281  -0.0094  1.0001  0.0462  -1.0334   0.0000   0.0000   0.0000   0.2197
 -13.000  -0.3349   0.13882   0.13438  -0.0132  1.0001  0.0520  -1.0870   0.0000   0.0000   0.0000   0.2073
 -12.000  -0.3531   0.13646   0.13205  -0.0187  1.0001  0.0548  -1.3098   0.0000   0.0000   0.0000   0.1938
 -11.000  -0.3216   0.11910   0.11471  -0.0196  1.0001  0.0580  -1.1984   0.0000   0.0000   0.0000   0.1857
 -10.000  -0.3028   0.10681   0.10247  -0.0214  1.0001  0.0648  -1.1105   0.0000   0.0000   0.0000   0.1763
  -9.000  -0.3188   0.09674   0.09255  -0.0290  1.0001  0.0712  -1.3076   0.0000   0.0000   0.0000   0.1563
  -8.000  -0.2943   0.08006   0.07597  -0.0270  1.0001  0.0764  -1.1876   0.0000   0.0000   0.0000   0.1558
  -7.000  -0.3094   0.06867   0.06479  -0.0268  1.0001  0.0859  -1.2819   0.0000   0.0000   0.0000   0.1613
  -6.000  -0.3905   0.07149   0.06736  -0.0436  1.0001  0.0890  -1.8255   0.0000   0.0000   0.0000   0.1358
  -5.000  -0.3597   0.05926   0.05523  -0.0380  1.0001  0.1000  -1.6664   0.0000   0.0000   0.0000   0.1422
  -4.000  -0.2730   0.04156   0.03677  -0.0544  1.0001  0.1250  -1.7810   0.0000   0.0000   0.0000   0.0485
  -3.000  -0.1034   0.01871   0.01061  -0.0678  1.0001  0.0588  -2.3797   0.0000   0.0000   0.0000  -0.4130
  -2.000   0.0247   0.01481   0.00710  -0.0711  1.0001  0.2157  -1.7764   0.0000   0.0000   0.0000   3.1446
  -1.000   0.1412   0.01323   0.00714  -0.0729  1.0001  0.6414  -1.0430   0.0000   0.0000   0.0000   0.7678
   0.000   0.3008   0.01331   0.00720  -0.0818  0.9657  0.9999  -0.5333   0.0000   0.0000   0.0000   0.5212
   1.000   0.4814   0.01310   0.00672  -0.0932  0.9133  0.9999  -0.7300   0.0000   0.0000   0.0000   0.4419
   2.000   0.6120   0.01202   0.00561  -0.0919  0.8413  0.9999  -0.9273   0.0000   0.0000   0.0000   0.3978
   3.000   0.7206   0.01158   0.00481  -0.0861  0.7035  0.9999  -1.1434   0.0000   0.0000   0.0000   0.3664
   4.000   0.8186   0.01335   0.00551  -0.0807  0.4956  0.9999  -1.3879   0.0000   0.0000   0.0000   0.3445
   5.000   0.9175   0.01596   0.00744  -0.0774  0.3589  0.9999  -1.8093   0.0000   0.0000   0.0000   0.3293
   6.000   1.0190   0.01875   0.01007  -0.0748  0.2771  0.9999  -2.5861   0.0000   0.0000   0.0000   0.3174
   7.000   1.1170   0.02167   0.01308  -0.0718  0.2089  0.9999  -3.4219   0.0000   0.0000   0.0000   0.3070
   8.000   1.2051   0.02399   0.01579  -0.0677  0.1367  0.9999  -4.3632   0.0000   0.0000   0.0000   0.2976
   9.000   1.2648   0.03031   0.02211  -0.0603  0.0506  0.9999  -4.9637   0.0000   0.0000   0.0000   0.2878
  10.000   1.3148   0.03998   0.03263  -0.0519  0.0388  0.9999  -5.3858   0.0000   0.0000   0.0000   0.2782
  11.000   1.3038   0.05505   0.04900  -0.0414  0.0369  0.9999  -5.4261   0.0000   0.0000   0.0000   0.2693
  12.000   1.2379   0.07279   0.06782  -0.0391  0.0367  0.9999  -5.2818   0.0000   0.0000   0.0000   0.2678
  13.000   1.1534   0.10239   0.09821  -0.0565  0.0377  0.9999  -4.8176   0.0000   0.0000   0.0000   0.2839
  14.000   1.0131   0.16548   0.16135  -0.0957  0.0471  0.9999  -2.8861   0.0000   0.0000   0.0000   0.3304
  15.000   0.7406   0.16053   0.15664  -0.0722  0.0588  0.9999  -1.7965   0.0000   0.0000   0.0000   0.3354
  16.000   1.0181   0.21838   0.21415  -0.1234  0.0762  0.9999  -1.9733   0.0000   0.0000   0.0000   0.3559
  17.000   0.7440   0.19461   0.19077  -0.0843  0.0802  0.9999  -1.3546   0.0000   0.0000   0.0000   0.3499
  18.000   0.7660   0.20766   0.20389  -0.0871  0.0672  0.9999  -1.4717   0.0000   0.0000   0.0000   0.3489
  19.000   0.7646   0.22141   0.21764  -0.0942  0.0647  0.9999  -1.3114   0.0000   0.0000   0.0000   0.3575
  20.000   0.7728   0.23365   0.22993  -0.1001  0.0556  0.9999  -1.2956   0.0000   0.0000   0.0000   0.3626
  21.000   0.8069   0.25541   0.25179  -0.1011  0.0510  0.9999  -1.5160   0.0000   0.0000   0.0000   0.3567
  22.000   0.7960   0.26211   0.25851  -0.1103  0.0461  0.9999  -1.2541   0.0000   0.0000   0.0000   0.3688
  23.000   0.8101   0.27600   0.27247  -0.1146  0.0398  0.9999  -1.2670   0.0000   0.0000   0.0000   0.3701
  24.000   0.8340   0.29827   0.29479  -0.1170  0.0370  0.9999  -1.4067   0.0000   0.0000   0.0000   0.3670
  25.000   0.8306   0.30639   0.30295  -0.1250  0.0338  0.9999  -1.2216   0.0000   0.0000   0.0000   0.3759
  26.000   0.8412   0.32120   0.31786  -0.1300  0.0289  0.9999  -1.2324   0.0000   0.0000   0.0000   0.3779
  27.000   0.8557   0.33787   0.33462  -0.1332  0.0257  0.9999  -1.3571   0.0000   0.0000   0.0000   0.3769
  28.000   0.8643   0.35676   0.35354  -0.1380  0.0248  0.9999  -1.2763   0.0000   0.0000   0.0000   0.3789
  29.000   0.8670   0.36827   0.36510  -0.1447  0.0217  0.9999  -1.0830   0.0000   0.0000   0.0000   0.3841
  30.000   0.8741   0.38362   0.38057  -0.1496  0.0185  0.9999  -1.0677   0.0000   0.0000   0.0000   0.3858


