xflr5 v6.61

 Calculated polar for: TJ1_7_77

 1 1 Reynolds number fixed          Mach number fixed         

 xtrf =   1.000 (top)        1.000 (bottom)
 Mach =   0.200     Re =     0.100 e 6     Ncrit =   9.000

  alpha     CL        CD       CDp       Cm    Top Xtr Bot Xtr   Cpmin    Chinge    XCp    
 ------- -------- --------- --------- -------- ------- ------- -------- --------- ---------
 -27.000  -0.9974   0.34842   0.34311   0.1272  1.0001  0.0180  -1.8717   0.0000   0.0000   0.0000   0.3561
 -26.000  -0.9654   0.33529   0.32994   0.1180  1.0001  0.0196  -1.7310   0.0000   0.0000   0.0000   0.3525
 -25.000  -0.9315   0.32328   0.31789   0.1080  1.0001  0.0213  -1.6581   0.0000   0.0000   0.0000   0.3480
 -24.000  -0.8963   0.31111   0.30563   0.0981  1.0001  0.0233  -1.6362   0.0000   0.0000   0.0000   0.3430
 -23.000  -0.8596   0.29998   0.29448   0.0875  1.0001  0.0255  -1.6384   0.0000   0.0000   0.0000   0.3368
 -22.000  -0.8262   0.29634   0.29084   0.0750  1.0001  0.0265  -1.7027   0.0000   0.0000   0.0000   0.3272
 -21.000  -0.7898   0.27695   0.27148   0.0669  1.0001  0.0275  -1.6758   0.0000   0.0000   0.0000   0.3223
 -20.000  -0.7518   0.25987   0.25437   0.0608  1.0001  0.0302  -1.5419   0.0000   0.0000   0.0000   0.3195
 -19.000  -0.7151   0.24689   0.24132   0.0527  1.0001  0.0334  -1.5098   0.0000   0.0000   0.0000   0.3133
 -18.000  -0.6785   0.23427   0.22870   0.0440  1.0001  0.0371  -1.5029   0.0000   0.0000   0.0000   0.3055
 -17.000  -0.6502   0.22854   0.22302   0.0327  1.0001  0.0393  -1.5995   0.0000   0.0000   0.0000   0.2918
 -16.000  -0.6323   0.22283   0.21737   0.0227  1.0001  0.0398  -1.6878   0.0000   0.0000   0.0000   0.2784
 -15.000  -0.5761   0.19330   0.18779   0.0222  1.0001  0.0446  -1.3917   0.0000   0.0000   0.0000   0.2812
 -14.000  -0.5452   0.18074   0.17526   0.0153  1.0001  0.0525  -1.4210   0.0000   0.0000   0.0000   0.2714
 -13.000  -0.5404   0.17610   0.17073   0.0038  1.0001  0.0550  -1.6672   0.0000   0.0000   0.0000   0.2512
 -12.000  -0.4907   0.15264   0.14728   0.0038  1.0001  0.0599  -1.4764   0.0000   0.0000   0.0000   0.2520
 -11.000  -0.4654   0.13961   0.13427  -0.0015  1.0001  0.0677  -1.4561   0.0000   0.0000   0.0000   0.2415
 -10.000  -0.4700   0.13262   0.12746  -0.0149  1.0001  0.0716  -1.7071   0.0000   0.0000   0.0000   0.2139
  -9.000  -0.4204   0.11249   0.10736  -0.0117  1.0001  0.0800  -1.4039   0.0000   0.0000   0.0000   0.2177
  -8.000  -0.4324   0.10442   0.09960  -0.0272  1.0001  0.0883  -1.6566   0.0000   0.0000   0.0000   0.1836
  -7.000  -0.3911   0.08763   0.08290  -0.0215  1.0001  0.0991  -1.4450   0.0000   0.0000   0.0000   0.1917
  -6.000  -0.3899   0.07545   0.07098  -0.0277  1.0001  0.1101  -1.5537   0.0000   0.0000   0.0000   0.1765
  -5.000  -0.3622   0.06197   0.05755  -0.0351  1.0001  0.1283  -1.6106   0.0000   0.0000   0.0000   0.1511
  -4.000  -0.2423   0.03270   0.02636  -0.0620  1.0001  0.0673  -2.3149   0.0000   0.0000   0.0000  -0.0095
  -3.000  -0.1095   0.02079   0.01227  -0.0675  1.0001  0.0742  -2.2852   0.0000   0.0000   0.0000  -0.3731
  -2.000   0.0183   0.01617   0.00798  -0.0703  1.0001  0.2388  -1.7476   0.0000   0.0000   0.0000   4.1064
  -1.000   0.1287   0.01380   0.00760  -0.0696  1.0001  0.7509  -1.0684   0.0000   0.0000   0.0000   0.7923
   0.000   0.2285   0.01475   0.00804  -0.0692  0.9939  0.9999  -0.5207   0.0000   0.0000   0.0000   0.5523
   1.000   0.4377   0.01556   0.00844  -0.0879  0.9349  0.9999  -0.6899   0.0000   0.0000   0.0000   0.4491
   2.000   0.6004   0.01455   0.00749  -0.0931  0.8629  0.9999  -0.9086   0.0000   0.0000   0.0000   0.4028
   3.000   0.7180   0.01329   0.00612  -0.0876  0.7421  0.9999  -1.1330   0.0000   0.0000   0.0000   0.3688
   4.000   0.8183   0.01455   0.00641  -0.0810  0.5366  0.9999  -1.3797   0.0000   0.0000   0.0000   0.3449
   5.000   0.9164   0.01744   0.00846  -0.0770  0.3896  0.9999  -1.7805   0.0000   0.0000   0.0000   0.3291
   6.000   1.0176   0.02062   0.01144  -0.0742  0.3003  0.9999  -2.5450   0.0000   0.0000   0.0000   0.3169
   7.000   1.1158   0.02414   0.01513  -0.0710  0.2287  0.9999  -3.3615   0.0000   0.0000   0.0000   0.3065
   8.000   1.2016   0.02719   0.01864  -0.0664  0.1560  0.9999  -4.2450   0.0000   0.0000   0.0000   0.2968
   9.000   1.2580   0.03231   0.02390  -0.0589  0.0674  0.9999  -4.8921   0.0000   0.0000   0.0000   0.2869
  10.000   1.3045   0.04421   0.03681  -0.0504  0.0487  0.9999  -5.1754   0.0000   0.0000   0.0000   0.2775
  11.000   1.2832   0.05884   0.05294  -0.0399  0.0462  0.9999  -5.1602   0.0000   0.0000   0.0000   0.2688
  12.000   1.1955   0.08077   0.07593  -0.0429  0.0470  0.9999  -4.8283   0.0000   0.0000   0.0000   0.2723
  13.000   1.0785   0.12269   0.11823  -0.0707  0.0502  0.9999  -3.9648   0.0000   0.0000   0.0000   0.3013
  14.000   0.9990   0.17205   0.16738  -0.0982  0.0610  0.9999  -2.6039   0.0000   0.0000   0.0000   0.3347
  15.000   0.7210   0.16812   0.16373  -0.0757  0.1086  0.9999  -1.4632   0.0000   0.0000   0.0000   0.3437
  16.000   0.7532   0.18382   0.17955  -0.0768  0.0988  0.9999  -1.5193   0.0000   0.0000   0.0000   0.3395
  17.000   0.7353   0.19504   0.19074  -0.0854  0.0935  0.9999  -1.2692   0.0000   0.0000   0.0000   0.3530
  18.000   0.7614   0.20955   0.20534  -0.0876  0.0831  0.9999  -1.3898   0.0000   0.0000   0.0000   0.3506
  19.000   0.7574   0.22126   0.21704  -0.0952  0.0752  0.9999  -1.2308   0.0000   0.0000   0.0000   0.3602
  20.000   0.8037   0.24526   0.24119  -0.0950  0.0662  0.9999  -1.5299   0.0000   0.0000   0.0000   0.3511
  21.000   0.7840   0.24920   0.24512  -0.1044  0.0637  0.9999  -1.2707   0.0000   0.0000   0.0000   0.3650
  22.000   0.7961   0.26250   0.25849  -0.1095  0.0552  0.9999  -1.2606   0.0000   0.0000   0.0000   0.3679
  23.000   0.8180   0.28212   0.27816  -0.1122  0.0507  0.9999  -1.3348   0.0000   0.0000   0.0000   0.3658
  24.000   0.8184   0.29187   0.28797  -0.1197  0.0457  0.9999  -1.1834   0.0000   0.0000   0.0000   0.3734
  25.000   0.8310   0.30644   0.30261  -0.1241  0.0400  0.9999  -1.2437   0.0000   0.0000   0.0000   0.3747
  26.000   0.8492   0.32789   0.32417  -0.1271  0.0369  0.9999  -1.3533   0.0000   0.0000   0.0000   0.3730
  27.000   0.8496   0.33754   0.33387  -0.1343  0.0344  0.9999  -1.1888   0.0000   0.0000   0.0000   0.3796
  28.000   0.8584   0.35276   0.34916  -0.1393  0.0298  0.9999  -1.1447   0.0000   0.0000   0.0000   0.3818
  29.000   0.8678   0.36833   0.36483  -0.1435  0.0264  0.9999  -1.1671   0.0000   0.0000   0.0000   0.3824
  30.000   0.8778   0.38913   0.38572  -0.1474  0.0248  0.9999  -1.1595   0.0000   0.0000   0.0000   0.3826


