xflr5 v6.61

 Calculated polar for: TJ1_13_00

 1 1 Reynolds number fixed          Mach number fixed         

 xtrf =   1.000 (top)        1.000 (bottom)
 Mach =   0.200     Re =     0.025 e 6     Ncrit =   9.000

  alpha     CL        CD       CDp       Cm    Top Xtr Bot Xtr   Cpmin    Chinge    XCp    
 ------- -------- --------- --------- -------- ------- ------- -------- --------- ---------
 -30.000  -1.0003   0.37396   0.36270   0.1316  1.0001  0.1040  -1.7129   0.0000   0.0000   0.0000   0.3428
 -29.000  -0.9709   0.36709   0.35582   0.1201  1.0001  0.1066  -1.7003   0.0000   0.0000   0.0000   0.3374
 -28.000  -0.9351   0.34777   0.33631   0.1117  1.0001  0.1136  -1.6241   0.0000   0.0000   0.0000   0.3352
 -27.000  -0.9032   0.34168   0.33016   0.1006  1.0001  0.1209  -1.6039   0.0000   0.0000   0.0000   0.3294
 -26.000  -0.8698   0.33036   0.31883   0.0905  1.0001  0.1247  -1.5628   0.0000   0.0000   0.0000   0.3240
 -25.000  -0.8318   0.31532   0.30372   0.0821  1.0001  0.1340  -1.4937   0.0000   0.0000   0.0000   0.3203
 -24.000  -0.8016   0.31162   0.29999   0.0710  1.0001  0.1408  -1.5146   0.0000   0.0000   0.0000   0.3122
 -23.000  -0.7598   0.29325   0.28156   0.0637  1.0001  0.1529  -1.4446   0.0000   0.0000   0.0000   0.3087
 -22.000  -0.7252   0.28301   0.27136   0.0545  1.0001  0.1598  -1.4255   0.0000   0.0000   0.0000   0.3015
 -21.000  -0.6887   0.27245   0.26080   0.0463  1.0001  0.1727  -1.3823   0.0000   0.0000   0.0000   0.2949
 -20.000  -0.6478   0.25667   0.24506   0.0392  1.0001  0.1834  -1.3592   0.0000   0.0000   0.0000   0.2892
 -19.000  -0.6117   0.24502   0.23339   0.0317  1.0001  0.1973  -1.3698   0.0000   0.0000   0.0000   0.2816
 -18.000  -0.5750   0.23277   0.22121   0.0250  1.0001  0.2148  -1.3705   0.0000   0.0000   0.0000   0.2741
 -17.000  -0.5394   0.22050   0.20902   0.0186  1.0001  0.2317  -1.3713   0.0000   0.0000   0.0000   0.2661
 -16.000  -0.5031   0.20751   0.19611   0.0131  1.0001  0.2517  -1.3603   0.0000   0.0000   0.0000   0.2582
 -15.000  -0.4751   0.19736   0.18601   0.0081  1.0001  0.2771  -1.3611   0.0000   0.0000   0.0000   0.2499
 -14.000  -0.4382   0.18300   0.17175   0.0044  1.0001  0.3095  -1.3244   0.0000   0.0000   0.0000   0.2434
 -13.000  -0.4054   0.16946   0.15833   0.0012  1.0001  0.3408  -1.2910   0.0000   0.0000   0.0000   0.2365
 -12.000  -0.3915   0.16065   0.14968  -0.0003  1.0001  0.3834  -1.3221   0.0000   0.0000   0.0000   0.2337
 -11.000  -0.3523   0.14500   0.13409  -0.0011  1.0001  0.4380  -1.2930   0.0000   0.0000   0.0000   0.2310
 -10.000  -0.3147   0.13088   0.12003  -0.0010  1.0001  0.5019  -1.2429   0.0000   0.0000   0.0000   0.2307
  -9.000  -0.2721   0.11682   0.10606   0.0007  1.0001  0.5974  -1.1515   0.0000   0.0000   0.0000   0.2356
  -8.000  -0.2164   0.10210   0.09132   0.0011  1.0001  0.7064  -1.0407   0.0000   0.0000   0.0000   0.2360
  -7.000  -0.0665   0.07894   0.06782  -0.0151  1.0001  0.9578  -0.8163   0.0000   0.0000   0.0000  -0.0313
  -6.000   0.0284   0.06348   0.05224  -0.0311  1.0001  0.9999  -0.7199   0.0000   0.0000   0.0000   1.4469
  -5.000  -0.3570   0.07887   0.06940   0.0084  1.0001  0.4868  -1.2995   0.0000   0.0000   0.0000   0.2668
  -4.000  -0.3820   0.06531   0.05601   0.0022  1.0001  0.4452  -1.3776   0.0000   0.0000   0.0000   0.2505
  -3.000  -0.3310   0.05201   0.04231  -0.0091  1.0001  0.4619  -1.3031   0.0000   0.0000   0.0000   0.2177
  -2.000  -0.2401   0.04346   0.03323  -0.0168  1.0001  0.5267  -1.1464   0.0000   0.0000   0.0000   0.1753
  -1.000  -0.1437   0.03889   0.02839  -0.0204  1.0001  0.6263  -0.9793   0.0000   0.0000   0.0000   0.1027
   0.000  -0.0750   0.03647   0.02632  -0.0164  1.0001  0.7840  -0.8398   0.0000   0.0000   0.0000   0.0280
   1.000   0.0585   0.03722   0.02607  -0.0412  1.0001  0.9999  -0.6869   0.0000   0.0000   0.0000   0.9507
   2.000   0.2041   0.04637   0.03419  -0.0622  0.9511  0.9999  -0.7122   0.0000   0.0000   0.0000   0.5502
   3.000   0.3924   0.05599   0.04330  -0.0828  0.8173  0.9999  -0.8769   0.0000   0.0000   0.0000   0.4563
   4.000   0.4966   0.06456   0.05167  -0.0879  0.7285  0.9999  -0.9806   0.0000   0.0000   0.0000   0.4217
   5.000   0.5708   0.07476   0.06175  -0.0901  0.6682  0.9999  -1.0538   0.0000   0.0000   0.0000   0.4018
   6.000   0.5924   0.08777   0.07475  -0.0913  0.6444  0.9999  -1.0584   0.0000   0.0000   0.0000   0.3972
   9.000   0.5906   0.13019   0.11739  -0.1019  0.7889  0.9999  -0.9393   0.0000   0.0000   0.0000   0.4121
  10.000   0.6459   0.14468   0.13201  -0.1055  0.7347  0.9999  -0.9856   0.0000   0.0000   0.0000   0.4020
  11.000   0.6874   0.15630   0.14375  -0.1065  0.6708  0.9999  -1.0283   0.0000   0.0000   0.0000   0.3925
  12.000   0.7281   0.16920   0.15684  -0.1089  0.6242  0.9999  -1.0877   0.0000   0.0000   0.0000   0.3860
  13.000   0.7731   0.18248   0.17028  -0.1113  0.5686  0.9999  -1.1472   0.0000   0.0000   0.0000   0.3793
  14.000   0.8274   0.20022   0.18824  -0.1156  0.5277  0.9999  -1.2197   0.0000   0.0000   0.0000   0.3737
  15.000   0.8558   0.20958   0.19781  -0.1182  0.4795  0.9999  -1.2623   0.0000   0.0000   0.0000   0.3706
  16.000   0.8938   0.22314   0.21156  -0.1227  0.4445  0.9999  -1.3137   0.0000   0.0000   0.0000   0.3683
  17.000   0.9379   0.23959   0.22822  -0.1273  0.4055  0.9999  -1.4822   0.0000   0.0000   0.0000   0.3652
  18.000   0.9691   0.25019   0.23912  -0.1331  0.3744  0.9999  -1.6043   0.0000   0.0000   0.0000   0.3650
  19.000   1.0008   0.26175   0.25086  -0.1399  0.3469  0.9999  -1.7033   0.0000   0.0000   0.0000   0.3656
  20.000   1.0402   0.27769   0.26703  -0.1463  0.3174  0.9999  -1.8007   0.0000   0.0000   0.0000   0.3645
  21.000   1.0721   0.28885   0.27837  -0.1542  0.2910  0.9999  -1.8293   0.0000   0.0000   0.0000   0.3657
  22.000   1.1085   0.30447   0.29427  -0.1618  0.2651  0.9999  -1.8345   0.0000   0.0000   0.0000   0.3657
  23.000   1.1407   0.31559   0.30551  -0.1706  0.2393  0.9999  -1.8393   0.0000   0.0000   0.0000   0.3670
  24.000   1.1756   0.32991   0.31995  -0.1792  0.2198  0.9999  -1.8542   0.0000   0.0000   0.0000   0.3675
  25.000   1.2097   0.34412   0.33428  -0.1880  0.2013  0.9999  -1.8646   0.0000   0.0000   0.0000   0.3680
  26.000   1.2391   0.35372   0.34396  -0.1987  0.1886  0.9999  -1.8827   0.0000   0.0000   0.0000   0.3702
  27.000   1.2711   0.36754   0.35801  -0.2085  0.1782  0.9999  -1.9355   0.0000   0.0000   0.0000   0.3711
  28.000   1.3062   0.38955   0.38019  -0.2162  0.1643  0.9999  -2.0428   0.0000   0.0000   0.0000   0.3698
  29.000   1.3310   0.38880   0.37956  -0.2294  0.1535  0.9999  -2.0472   0.0000   0.0000   0.0000   0.3733
  30.000   1.3609   0.40495   0.39585  -0.2390  0.1462  0.9999  -2.1320   0.0000   0.0000   0.0000   0.3734


