xflr5 v6.61

 Calculated polar for: TJ1_7_77

 1 1 Reynolds number fixed          Mach number fixed         

 xtrf =   1.000 (top)        1.000 (bottom)
 Mach =   0.200     Re =     0.060 e 6     Ncrit =   9.000

  alpha     CL        CD       CDp       Cm    Top Xtr Bot Xtr   Cpmin    Chinge    XCp    
 ------- -------- --------- --------- -------- ------- ------- -------- --------- ---------
 -22.000  -0.8225   0.28658   0.27952   0.0766  1.0001  0.0434  -1.5458   0.0000   0.0000   0.0000   0.3296
 -21.000  -0.7859   0.27360   0.26651   0.0681  1.0001  0.0478  -1.4913   0.0000   0.0000   0.0000   0.3243
 -20.000  -0.7496   0.26219   0.25509   0.0587  1.0001  0.0527  -1.5088   0.0000   0.0000   0.0000   0.3171
 -19.000  -0.7233   0.26186   0.25475   0.0464  1.0001  0.0549  -1.6265   0.0000   0.0000   0.0000   0.3042
 -18.000  -0.6788   0.23613   0.22902   0.0417  1.0001  0.0579  -1.4921   0.0000   0.0000   0.0000   0.3022
 -17.000  -0.6415   0.22209   0.21498   0.0352  1.0001  0.0654  -1.3946   0.0000   0.0000   0.0000   0.2964
 -16.000  -0.6227   0.21962   0.21260   0.0241  1.0001  0.0713  -1.4835   0.0000   0.0000   0.0000   0.2812
 -15.000  -0.5754   0.19580   0.18874   0.0210  1.0001  0.0770  -1.3634   0.0000   0.0000   0.0000   0.2793
 -14.000  -0.5475   0.18452   0.17750   0.0139  1.0001  0.0865  -1.4035   0.0000   0.0000   0.0000   0.2689
 -13.000  -0.5196   0.17012   0.16319   0.0081  1.0001  0.0915  -1.4236   0.0000   0.0000   0.0000   0.2597
 -12.000  -0.4941   0.15789   0.15102   0.0028  1.0001  0.1034  -1.4121   0.0000   0.0000   0.0000   0.2503
 -11.000  -0.4656   0.14287   0.13604  -0.0012  1.0001  0.1114  -1.3694   0.0000   0.0000   0.0000   0.2424
 -10.000  -0.4744   0.13723   0.13063  -0.0113  1.0001  0.1225  -1.5172   0.0000   0.0000   0.0000   0.2221
  -9.000  -0.4405   0.12078   0.11430  -0.0134  1.0001  0.1391  -1.4027   0.0000   0.0000   0.0000   0.2156
  -8.000  -0.4341   0.10969   0.10348  -0.0188  1.0001  0.1569  -1.4331   0.0000   0.0000   0.0000   0.2033
  -7.000  -0.3920   0.09336   0.08729  -0.0157  1.0001  0.1872  -1.3562   0.0000   0.0000   0.0000   0.2067
  -6.000  -0.3889   0.08215   0.07641  -0.0175  1.0001  0.2131  -1.4191   0.0000   0.0000   0.0000   0.2024
  -5.000  -0.3732   0.07054   0.06506  -0.0177  1.0001  0.2502  -1.4467   0.0000   0.0000   0.0000   0.2006
  -4.000  -0.2500   0.03903   0.03172  -0.0600  1.0001  0.1019  -2.1546   0.0000   0.0000   0.0000   0.0069
  -3.000  -0.1225   0.02591   0.01658  -0.0668  1.0001  0.1154  -2.1004   0.0000   0.0000   0.0000  -0.3007
  -2.000  -0.0004   0.01994   0.01057  -0.0680  1.0001  0.2999  -1.6938   0.0000   0.0000   0.0000  -175.8465
  -1.000   0.0849   0.01597   0.00868  -0.0600  1.0001  0.9999  -1.1698   0.0000   0.0000   0.0000   0.9591
   0.000   0.1947   0.01733   0.00866  -0.0624  1.0001  0.9999  -0.5838   0.0000   0.0000   0.0000   0.5701
   1.000   0.2894   0.01962   0.01047  -0.0637  1.0001  0.9999  -0.5686   0.0000   0.0000   0.0000   0.4684
   2.000   0.4995   0.02232   0.01313  -0.0853  0.9288  0.9999  -0.7935   0.0000   0.0000   0.0000   0.4183
   3.000   0.6922   0.02066   0.01190  -0.0929  0.8116  0.9999  -1.0735   0.0000   0.0000   0.0000   0.3811
   4.000   0.8161   0.01913   0.01012  -0.0844  0.6393  0.9999  -1.3458   0.0000   0.0000   0.0000   0.3495
   5.000   0.9172   0.02200   0.01216  -0.0780  0.4747  0.9999  -1.6999   0.0000   0.0000   0.0000   0.3303
   6.000   1.0173   0.02629   0.01636  -0.0742  0.3681  0.9999  -2.4227   0.0000   0.0000   0.0000   0.3171
   7.000   1.1136   0.03156   0.02185  -0.0702  0.2860  0.9999  -3.1797   0.0000   0.0000   0.0000   0.3062
   8.000   1.1971   0.03844   0.02955  -0.0650  0.2132  0.9999  -3.8838   0.0000   0.0000   0.0000   0.2962
   9.000   1.2523   0.04354   0.03511  -0.0566  0.1246  0.9999  -4.5344   0.0000   0.0000   0.0000   0.2857
  10.000   1.2603   0.05845   0.05134  -0.0470  0.0893  0.9999  -4.5569   0.0000   0.0000   0.0000   0.2768
  11.000   1.2141   0.07502   0.06866  -0.0400  0.0813  0.9999  -4.4838   0.0000   0.0000   0.0000   0.2713
  12.000   1.0055   0.13375   0.12788  -0.0794  0.1202  0.9999  -2.9242   0.0000   0.0000   0.0000   0.3177
  13.000   0.9749   0.16291   0.15687  -0.0938  0.1242  0.9999  -2.4376   0.0000   0.0000   0.0000   0.3344
  14.000   0.9652   0.19141   0.18526  -0.1102  0.1765  0.9999  -1.9661   0.0000   0.0000   0.0000   0.3519
  15.000   0.9856   0.20855   0.20244  -0.1172  0.1604  0.9999  -1.8825   0.0000   0.0000   0.0000   0.3554
  16.000   1.0093   0.22406   0.21794  -0.1250  0.1413  0.9999  -1.8271   0.0000   0.0000   0.0000   0.3590
  17.000   1.0485   0.24420   0.23813  -0.1297  0.1301  0.9999  -1.9335   0.0000   0.0000   0.0000   0.3575
  18.000   1.0754   0.25734   0.25131  -0.1387  0.1161  0.9999  -1.9403   0.0000   0.0000   0.0000   0.3612
  19.000   1.0991   0.26991   0.26390  -0.1506  0.1058  0.9999  -1.9045   0.0000   0.0000   0.0000   0.3676
  20.000   1.1358   0.28833   0.28236  -0.1572  0.0968  0.9999  -2.0288   0.0000   0.0000   0.0000   0.3672
  21.000   1.1659   0.29952   0.29359  -0.1683  0.0856  0.9999  -2.0326   0.0000   0.0000   0.0000   0.3713
  22.000   1.2004   0.31778   0.31187  -0.1764  0.0808  0.9999  -2.0720   0.0000   0.0000   0.0000   0.3720
  23.000   1.2313   0.32773   0.32186  -0.1882  0.0699  0.9999  -2.0466   0.0000   0.0000   0.0000   0.3758
  24.000   1.2664   0.34943   0.34369  -0.1952  0.0656  0.9999  -2.1964   0.0000   0.0000   0.0000   0.3750
  25.000   1.2953   0.35466   0.34893  -0.2098  0.0588  0.9999  -2.1367   0.0000   0.0000   0.0000   0.3805
  26.000   1.3285   0.37216   0.36655  -0.2170  0.0524  0.9999  -2.2896   0.0000   0.0000   0.0000   0.3795
  27.000   1.3578   0.38452   0.37891  -0.2289  0.0500  0.9999  -2.2498   0.0000   0.0000   0.0000   0.3822
  28.000   1.3881   0.39165   0.38617  -0.2423  0.0446  0.9999  -2.1793   0.0000   0.0000   0.0000   0.3855
  29.000   1.4170   0.40352   0.39814  -0.2524  0.0399  0.9999  -2.2138   0.0000   0.0000   0.0000   0.3862
  30.000   1.4459   0.44604   0.44078  -0.2560  0.0371  0.9999  -2.3791   0.0000   0.0000   0.0000   0.3825


