xflr5 v6.61

 Calculated polar for: TJ1_7_77

 1 1 Reynolds number fixed          Mach number fixed         

 xtrf =   1.000 (top)        1.000 (bottom)
 Mach =   0.200     Re =     0.080 e 6     Ncrit =   9.000

  alpha     CL        CD       CDp       Cm    Top Xtr Bot Xtr   Cpmin    Chinge    XCp    
 ------- -------- --------- --------- -------- ------- ------- -------- --------- ---------
 -18.000  -0.6784   0.23424   0.22806   0.0432  1.0001  0.0434  -1.5012   0.0000   0.0000   0.0000   0.3043
 -17.000  -0.6421   0.22089   0.21471   0.0361  1.0001  0.0481  -1.4228   0.0000   0.0000   0.0000   0.2976
 -16.000  -0.6100   0.21024   0.20409   0.0271  1.0001  0.0538  -1.4254   0.0000   0.0000   0.0000   0.2867
 -15.000  -0.5857   0.19894   0.19284   0.0183  1.0001  0.0562  -1.5081   0.0000   0.0000   0.0000   0.2743
 -14.000  -0.5437   0.18083   0.17472   0.0155  1.0001  0.0634  -1.3876   0.0000   0.0000   0.0000   0.2719
 -13.000  -0.5253   0.17183   0.16580   0.0068  1.0001  0.0707  -1.5051   0.0000   0.0000   0.0000   0.2570
 -12.000  -0.4942   0.15470   0.14874   0.0025  1.0001  0.0744  -1.4821   0.0000   0.0000   0.0000   0.2495
 -11.000  -0.4650   0.14100   0.13505  -0.0015  1.0001  0.0840  -1.4149   0.0000   0.0000   0.0000   0.2416
 -10.000  -0.4578   0.12961   0.12383  -0.0101  1.0001  0.0898  -1.5230   0.0000   0.0000   0.0000   0.2234
  -9.000  -0.4246   0.11522   0.10951  -0.0124  1.0001  0.1027  -1.3888   0.0000   0.0000   0.0000   0.2165
  -8.000  -0.4023   0.10150   0.09596  -0.0163  1.0001  0.1123  -1.3581   0.0000   0.0000   0.0000   0.2056
  -7.000  -0.4010   0.09009   0.08487  -0.0219  1.0001  0.1256  -1.4625   0.0000   0.0000   0.0000   0.1924
  -6.000  -0.3879   0.07833   0.07334  -0.0236  1.0001  0.1455  -1.4811   0.0000   0.0000   0.0000   0.1867
  -5.000  -0.3678   0.06617   0.06134  -0.0287  1.0001  0.1789  -1.5223   0.0000   0.0000   0.0000   0.1700
  -4.000  -0.2469   0.03562   0.02902  -0.0609  1.0001  0.0814  -2.2175   0.0000   0.0000   0.0000  -0.0001
  -3.000  -0.1141   0.02286   0.01387  -0.0673  1.0001  0.0901  -2.2140   0.0000   0.0000   0.0000  -0.3461
  -2.000   0.0108   0.01770   0.00897  -0.0694  1.0001  0.2630  -1.7196   0.0000   0.0000   0.0000   6.7372
  -1.000   0.1055   0.01447   0.00805  -0.0640  1.0001  0.8840  -1.1234   0.0000   0.0000   0.0000   0.8578
   0.000   0.2052   0.01578   0.00830  -0.0647  1.0001  0.9999  -0.5673   0.0000   0.0000   0.0000   0.5646
   1.000   0.3720   0.01786   0.00991  -0.0782  0.9659  0.9999  -0.6330   0.0000   0.0000   0.0000   0.4586
   2.000   0.5763   0.01770   0.00980  -0.0930  0.8871  0.9999  -0.8757   0.0000   0.0000   0.0000   0.4090
   3.000   0.7122   0.01577   0.00802  -0.0896  0.7756  0.9999  -1.1161   0.0000   0.0000   0.0000   0.3727
   4.000   0.8178   0.01613   0.00762  -0.0817  0.5813  0.9999  -1.3688   0.0000   0.0000   0.0000   0.3460
   5.000   0.9165   0.01916   0.00978  -0.0770  0.4238  0.9999  -1.7495   0.0000   0.0000   0.0000   0.3292
   6.000   1.0171   0.02275   0.01325  -0.0739  0.3260  0.9999  -2.4966   0.0000   0.0000   0.0000   0.3167
   7.000   1.1158   0.02701   0.01757  -0.0706  0.2514  0.9999  -3.2972   0.0000   0.0000   0.0000   0.3062
   8.000   1.2025   0.03152   0.02264  -0.0659  0.1787  0.9999  -4.1173   0.0000   0.0000   0.0000   0.2964
   9.000   1.2568   0.03631   0.02786  -0.0576  0.0902  0.9999  -4.7447   0.0000   0.0000   0.0000   0.2861
  10.000   1.2926   0.04860   0.04122  -0.0489  0.0608  0.9999  -4.9740   0.0000   0.0000   0.0000   0.2768
  11.000   1.2547   0.06440   0.05844  -0.0392  0.0573  0.9999  -4.8815   0.0000   0.0000   0.0000   0.2692
  12.000   1.1356   0.09346   0.08843  -0.0511  0.0607  0.9999  -4.3058   0.0000   0.0000   0.0000   0.2819
  13.000   1.0238   0.14255   0.13751  -0.0813  0.0686  0.9999  -3.1602   0.0000   0.0000   0.0000   0.3164
  14.000   0.9941   0.17612   0.17088  -0.0984  0.0792  0.9999  -2.4815   0.0000   0.0000   0.0000   0.3356
  15.000   0.9934   0.20454   0.19928  -0.1145  0.1184  0.9999  -1.9638   0.0000   0.0000   0.0000   0.3515
  16.000   1.0193   0.22322   0.21795  -0.1219  0.1127  0.9999  -1.9355   0.0000   0.0000   0.0000   0.3545
  17.000   1.0489   0.23872   0.23348  -0.1294  0.0998  0.9999  -1.9920   0.0000   0.0000   0.0000   0.3568
  18.000   1.0695   0.25306   0.24777  -0.1416  0.0902  0.9999  -1.8970   0.0000   0.0000   0.0000   0.3644
  19.000   1.1171   0.27804   0.27290  -0.1434  0.0816  0.9999  -2.1718   0.0000   0.0000   0.0000   0.3588
  20.000   1.1330   0.28321   0.27801  -0.1602  0.0735  0.9999  -2.0085   0.0000   0.0000   0.0000   0.3700
  21.000   1.1825   0.31461   0.30953  -0.1606  0.0661  0.9999  -2.2935   0.0000   0.0000   0.0000   0.3627
  22.000   1.1986   0.31246   0.30731  -0.1798  0.0599  0.9999  -2.0310   0.0000   0.0000   0.0000   0.3749
  23.000   1.2343   0.32876   0.32370  -0.1865  0.0525  0.9999  -2.1828   0.0000   0.0000   0.0000   0.3738
  24.000   1.2662   0.34713   0.34213  -0.1962  0.0505  0.9999  -2.2364   0.0000   0.0000   0.0000   0.3756
  25.000   1.2965   0.35417   0.34920  -0.2107  0.0441  0.9999  -2.1633   0.0000   0.0000   0.0000   0.3810
  26.000   1.3285   0.36931   0.36444  -0.2185  0.0385  0.9999  -2.3266   0.0000   0.0000   0.0000   0.3804
  27.000   1.3598   0.39425   0.38941  -0.2262  0.0368  0.9999  -2.3854   0.0000   0.0000   0.0000   0.3799
  28.000   1.3890   0.39192   0.38714  -0.2430  0.0344  0.9999  -2.1915   0.0000   0.0000   0.0000   0.3857
  29.000   1.4185   0.40284   0.39814  -0.2545  0.0300  0.9999  -2.1615   0.0000   0.0000   0.0000   0.3874
  30.000   1.4450   0.41566   0.41107  -0.2635  0.0262  0.9999  -2.2687   0.0000   0.0000   0.0000   0.3873


