xflr5 v6.61

 Calculated polar for: TJ1_7_77

 1 1 Reynolds number fixed          Mach number fixed         

 xtrf =   1.000 (top)        1.000 (bottom)
 Mach =   0.200     Re =     0.070 e 6     Ncrit =   9.000

  alpha     CL        CD       CDp       Cm    Top Xtr Bot Xtr   Cpmin    Chinge    XCp    
 ------- -------- --------- --------- -------- ------- ------- -------- --------- ---------
 -20.000  -0.7506   0.26100   0.25445   0.0591  1.0001  0.0427  -1.5454   0.0000   0.0000   0.0000   0.3174
 -19.000  -0.7135   0.24752   0.24089   0.0515  1.0001  0.0470  -1.4853   0.0000   0.0000   0.0000   0.3118
 -18.000  -0.6774   0.23531   0.22868   0.0429  1.0001  0.0522  -1.4672   0.0000   0.0000   0.0000   0.3040
 -17.000  -0.6543   0.23273   0.22618   0.0313  1.0001  0.0549  -1.5708   0.0000   0.0000   0.0000   0.2895
 -16.000  -0.6086   0.20836   0.20182   0.0278  1.0001  0.0593  -1.3849   0.0000   0.0000   0.0000   0.2879
 -15.000  -0.5750   0.19542   0.18885   0.0213  1.0001  0.0677  -1.3614   0.0000   0.0000   0.0000   0.2798
 -14.000  -0.5706   0.19366   0.18722   0.0100  1.0001  0.0715  -1.5756   0.0000   0.0000   0.0000   0.2614
 -13.000  -0.5151   0.16815   0.16169   0.0093  1.0001  0.0788  -1.4002   0.0000   0.0000   0.0000   0.2620
 -12.000  -0.5032   0.15976   0.15340   0.0009  1.0001  0.0877  -1.5041   0.0000   0.0000   0.0000   0.2464
 -11.000  -0.4651   0.14158   0.13524  -0.0014  1.0001  0.0946  -1.3949   0.0000   0.0000   0.0000   0.2419
 -10.000  -0.4664   0.13421   0.12805  -0.0112  1.0001  0.1051  -1.5251   0.0000   0.0000   0.0000   0.2216
  -9.000  -0.4216   0.11576   0.10966  -0.0110  1.0001  0.1176  -1.3352   0.0000   0.0000   0.0000   0.2197
  -8.000  -0.4020   0.10280   0.09690  -0.0152  1.0001  0.1306  -1.3370   0.0000   0.0000   0.0000   0.2083
  -7.000  -0.3921   0.09153   0.08590  -0.0183  1.0001  0.1521  -1.3858   0.0000   0.0000   0.0000   0.2002
  -6.000  -0.3922   0.08041   0.07511  -0.0231  1.0001  0.1770  -1.4705   0.0000   0.0000   0.0000   0.1886
  -5.000  -0.3708   0.06820   0.06306  -0.0269  1.0001  0.2115  -1.5079   0.0000   0.0000   0.0000   0.1755
  -4.000  -0.2424   0.03617   0.02887  -0.0620  1.0001  0.0871  -2.2693   0.0000   0.0000   0.0000  -0.0092
  -3.000  -0.1182   0.02430   0.01520  -0.0671  1.0001  0.1014  -2.1545   0.0000   0.0000   0.0000  -0.3232
  -2.000   0.0060   0.01870   0.00965  -0.0688  1.0001  0.2796  -1.7079   0.0000   0.0000   0.0000  11.7320
  -1.000   0.0905   0.01507   0.00836  -0.0611  1.0001  0.9999  -1.1610   0.0000   0.0000   0.0000   0.9275
   0.000   0.2004   0.01647   0.00846  -0.0636  1.0001  0.9999  -0.5748   0.0000   0.0000   0.0000   0.5670
   1.000   0.3179   0.01886   0.01039  -0.0691  0.9913  0.9999  -0.5897   0.0000   0.0000   0.0000   0.4656
   2.000   0.5467   0.01987   0.01140  -0.0905  0.9032  0.9999  -0.8428   0.0000   0.0000   0.0000   0.4132
   3.000   0.7058   0.01776   0.00958  -0.0911  0.7928  0.9999  -1.1008   0.0000   0.0000   0.0000   0.3760
   4.000   0.8173   0.01734   0.00862  -0.0827  0.6079  0.9999  -1.3596   0.0000   0.0000   0.0000   0.3473
   5.000   0.9165   0.02036   0.01081  -0.0773  0.4454  0.9999  -1.7266   0.0000   0.0000   0.0000   0.3295
   6.000   1.0171   0.02428   0.01459  -0.0739  0.3442  0.9999  -2.4639   0.0000   0.0000   0.0000   0.3168
   7.000   1.1152   0.02902   0.01942  -0.0704  0.2665  0.9999  -3.2473   0.0000   0.0000   0.0000   0.3061
   8.000   1.2010   0.03467   0.02583  -0.0654  0.1939  0.9999  -4.0103   0.0000   0.0000   0.0000   0.2963
   9.000   1.2559   0.03916   0.03069  -0.0571  0.1048  0.9999  -4.6645   0.0000   0.0000   0.0000   0.2858
  10.000   1.2859   0.05126   0.04371  -0.0482  0.0696  0.9999  -4.8769   0.0000   0.0000   0.0000   0.2766
  11.000   1.2459   0.06821   0.06191  -0.0393  0.0653  0.9999  -4.7816   0.0000   0.0000   0.0000   0.2696
  13.000   0.9929   0.15531   0.14978  -0.0885  0.0944  0.9999  -2.6827   0.0000   0.0000   0.0000   0.3268
  15.000   0.7128   0.17123   0.16598  -0.0771  0.1542  0.9999  -1.4030   0.0000   0.0000   0.0000   0.3472
  16.000   0.7196   0.18415   0.17893  -0.0815  0.1392  0.9999  -1.3038   0.0000   0.0000   0.0000   0.3513
  17.000   1.0566   0.24525   0.23967  -0.1274  0.1139  0.9999  -2.0144   0.0000   0.0000   0.0000   0.3542
  18.000   1.0717   0.25424   0.24862  -0.1403  0.1014  0.9999  -1.9191   0.0000   0.0000   0.0000   0.3630
  19.000   1.0999   0.26901   0.26342  -0.1506  0.0914  0.9999  -1.9330   0.0000   0.0000   0.0000   0.3674


