xflr5 v6.61

 Calculated polar for: TJ1_13_00

 1 1 Reynolds number fixed          Mach number fixed         

 xtrf =   1.000 (top)        1.000 (bottom)
 Mach =   0.200     Re =     0.080 e 6     Ncrit =   9.000

  alpha     CL        CD       CDp       Cm    Top Xtr Bot Xtr   Cpmin    Chinge    XCp    
 ------- -------- --------- --------- -------- ------- ------- -------- --------- ---------
 -22.000  -0.7284   0.27412   0.26755   0.0570  1.0001  0.0583  -1.5183   0.0000   0.0000   0.0000   0.3041
 -21.000  -0.6889   0.26153   0.25496   0.0492  1.0001  0.0629  -1.4302   0.0000   0.0000   0.0000   0.2986
 -20.000  -0.6522   0.25041   0.24385   0.0397  1.0001  0.0693  -1.4026   0.0000   0.0000   0.0000   0.2894
 -19.000  -0.6370   0.25138   0.24485   0.0262  1.0001  0.0715  -1.5778   0.0000   0.0000   0.0000   0.2712
 -18.000  -0.5783   0.22359   0.21707   0.0239  1.0001  0.0758  -1.4258   0.0000   0.0000   0.0000   0.2717
 -17.000  -0.5458   0.21343   0.20695   0.0153  1.0001  0.0870  -1.4731   0.0000   0.0000   0.0000   0.2594
 -16.000  -0.5107   0.19810   0.19169   0.0088  1.0001  0.0914  -1.4969   0.0000   0.0000   0.0000   0.2493
 -15.000  -0.4747   0.18520   0.17880   0.0031  1.0001  0.1022  -1.4782   0.0000   0.0000   0.0000   0.2392
 -14.000  -0.4502   0.17158   0.16526  -0.0040  1.0001  0.1082  -1.5409   0.0000   0.0000   0.0000   0.2246
 -13.000  -0.4508   0.16460   0.15839  -0.0125  1.0001  0.1223  -1.6691   0.0000   0.0000   0.0000   0.2070
 -12.000  -0.3968   0.14566   0.13948  -0.0137  1.0001  0.1373  -1.5185   0.0000   0.0000   0.0000   0.2002
 -11.000  -0.3698   0.13113   0.12504  -0.0172  1.0001  0.1490  -1.4875   0.0000   0.0000   0.0000   0.1884
 -10.000  -0.3631   0.11938   0.11339  -0.0224  1.0001  0.1724  -1.5668   0.0000   0.0000   0.0000   0.1747
  -9.000  -0.3788   0.10819   0.10241  -0.0286  1.0001  0.1914  -1.7034   0.0000   0.0000   0.0000   0.1628
  -7.000  -0.5103   0.06174   0.05628  -0.0443  1.0001  0.1413  -2.5832   0.0000   0.0000   0.0000   0.1550
  -6.000  -0.4937   0.04355   0.03728  -0.0497  1.0001  0.1496  -2.6070   0.0000   0.0000   0.0000   0.1416
  -5.000  -0.4123   0.03274   0.02509  -0.0540  1.0001  0.1779  -2.2881   0.0000   0.0000   0.0000   0.1112
  -4.000  -0.3138   0.02861   0.02039  -0.0549  1.0001  0.2149  -1.8609   0.0000   0.0000   0.0000   0.0671
  -3.000  -0.2143   0.02635   0.01768  -0.0557  1.0001  0.2586  -1.4894   0.0000   0.0000   0.0000  -0.0189
  -2.000  -0.0142   0.02524   0.01650  -0.0736  0.9613  0.3339  -1.0805   0.0000   0.0000   0.0000  -5.0008
  -1.000   0.1801   0.02366   0.01541  -0.0872  0.9039  0.4456  -0.7401   0.0000   0.0000   0.0000   0.7360
   0.000   0.3393   0.02067   0.01365  -0.0895  0.8425  0.6899  -0.8187   0.0000   0.0000   0.0000   0.5124
   1.000   0.4758   0.01749   0.01060  -0.0850  0.7695  0.9999  -0.9966   0.0000   0.0000   0.0000   0.4255
   2.000   0.5970   0.01690   0.00914  -0.0817  0.6561  0.9999  -1.1781   0.0000   0.0000   0.0000   0.3824
   3.000   0.7061   0.01826   0.00945  -0.0782  0.5371  0.9999  -1.3601   0.0000   0.0000   0.0000   0.3553
   4.000   0.8131   0.02057   0.01102  -0.0758  0.4504  0.9999  -1.5509   0.0000   0.0000   0.0000   0.3367
   5.000   0.9205   0.02335   0.01335  -0.0740  0.3914  0.9999  -1.7642   0.0000   0.0000   0.0000   0.3228
   6.000   1.0246   0.02676   0.01673  -0.0721  0.3478  0.9999  -1.9821   0.0000   0.0000   0.0000   0.3118
   7.000   1.1238   0.03084   0.02095  -0.0699  0.3137  0.9999  -2.2159   0.0000   0.0000   0.0000   0.3023
   8.000   1.2205   0.03541   0.02564  -0.0674  0.2847  0.9999  -2.4636   0.0000   0.0000   0.0000   0.2941
   9.000   1.2832   0.04247   0.03363  -0.0620  0.2611  0.9999  -2.6941   0.0000   0.0000   0.0000   0.2860
  10.000   1.3165   0.05155   0.04358  -0.0550  0.2409  0.9999  -2.8797   0.0000   0.0000   0.0000   0.2781
  11.000   1.2406   0.06863   0.06151  -0.0453  0.2303  0.9999  -2.7989   0.0000   0.0000   0.0000   0.2716
  13.000   0.8749   0.16756   0.16087  -0.0946  0.2698  0.9999  -1.4791   0.0000   0.0000   0.0000   0.3432
  14.000   0.8835   0.18156   0.17498  -0.1002  0.2462  0.9999  -1.4730   0.0000   0.0000   0.0000   0.3470
  15.000   0.9065   0.19494   0.18845  -0.1057  0.2236  0.9999  -1.4838   0.0000   0.0000   0.0000   0.3488
  16.000   0.9344   0.20888   0.20250  -0.1119  0.2058  0.9999  -1.6096   0.0000   0.0000   0.0000   0.3503
  17.000   0.9662   0.22229   0.21607  -0.1180  0.1871  0.9999  -1.7632   0.0000   0.0000   0.0000   0.3510
  18.000   0.9942   0.23632   0.23021  -0.1261  0.1741  0.9999  -1.8631   0.0000   0.0000   0.0000   0.3539
  19.000   1.0277   0.25066   0.24467  -0.1333  0.1612  0.9999  -1.9719   0.0000   0.0000   0.0000   0.3549
  20.000   1.0583   0.26412   0.25826  -0.1419  0.1431  0.9999  -2.0034   0.0000   0.0000   0.0000   0.3573
  21.000   1.0908   0.27757   0.27180  -0.1505  0.1201  0.9999  -1.9649   0.0000   0.0000   0.0000   0.3590
  22.000   1.1218   0.29266   0.28699  -0.1603  0.1096  0.9999  -1.9163   0.0000   0.0000   0.0000   0.3618
  24.000   1.1862   0.31961   0.31404  -0.1801  0.0895  0.9999  -1.8989   0.0000   0.0000   0.0000   0.3661
  25.000   1.2271   0.33765   0.33220  -0.1847  0.0828  0.9999  -2.0685   0.0000   0.0000   0.0000   0.3621
  26.000   1.2504   0.34694   0.34149  -0.1995  0.0797  0.9999  -1.9851   0.0000   0.0000   0.0000   0.3686
  27.000   1.2814   0.35753   0.35222  -0.2101  0.0698  0.9999  -2.0729   0.0000   0.0000   0.0000   0.3701
  28.000   1.3215   0.39154   0.38635  -0.2127  0.0661  0.9999  -2.3194   0.0000   0.0000   0.0000   0.3642
  29.000   1.3398   0.38086   0.37568  -0.2326  0.0627  0.9999  -2.1695   0.0000   0.0000   0.0000   0.3738
  30.000   1.3687   0.39088   0.38579  -0.2431  0.0545  0.9999  -2.2825   0.0000   0.0000   0.0000   0.3743


