xflr5 v6.61

 Calculated polar for: TJ1_10_00

 1 1 Reynolds number fixed          Mach number fixed         

 xtrf =   1.000 (top)        1.000 (bottom)
 Mach =   0.200     Re =     0.090 e 6     Ncrit =   9.000

  alpha     CL        CD       CDp       Cm    Top Xtr Bot Xtr   Cpmin    Chinge    XCp    
 ------- -------- --------- --------- -------- ------- ------- -------- --------- ---------
 -27.000  -0.9600   0.34487   0.33908   0.1162  1.0001  0.0276  -1.8472   0.0000   0.0000   0.0000   0.3451
 -26.000  -0.9261   0.32932   0.32348   0.1080  1.0001  0.0296  -1.7043   0.0000   0.0000   0.0000   0.3427
 -25.000  -0.8913   0.31752   0.31164   0.0985  1.0001  0.0330  -1.6124   0.0000   0.0000   0.0000   0.3383
 -24.000  -0.8554   0.30578   0.29987   0.0884  1.0001  0.0365  -1.5967   0.0000   0.0000   0.0000   0.3327
 -23.000  -0.8203   0.29948   0.29351   0.0762  1.0001  0.0390  -1.6683   0.0000   0.0000   0.0000   0.3239
 -22.000  -0.7923   0.29836   0.29241   0.0637  1.0001  0.0396  -1.7490   0.0000   0.0000   0.0000   0.3131
 -21.000  -0.7486   0.27015   0.26421   0.0582  1.0001  0.0411  -1.6139   0.0000   0.0000   0.0000   0.3113
 -20.000  -0.7091   0.25506   0.24910   0.0518  1.0001  0.0448  -1.4566   0.0000   0.0000   0.0000   0.3078
 -19.000  -0.6717   0.24272   0.23671   0.0434  1.0001  0.0512  -1.4355   0.0000   0.0000   0.0000   0.3005
 -18.000  -0.6446   0.23790   0.23193   0.0314  1.0001  0.0547  -1.5724   0.0000   0.0000   0.0000   0.2858
 -17.000  -0.6132   0.22281   0.21691   0.0232  1.0001  0.0559  -1.6073   0.0000   0.0000   0.0000   0.2758
 -16.000  -0.5651   0.20293   0.19700   0.0205  1.0001  0.0606  -1.4002   0.0000   0.0000   0.0000   0.2746
 -15.000  -0.5314   0.19012   0.18418   0.0137  1.0001  0.0673  -1.3475   0.0000   0.0000   0.0000   0.2650
 -14.000  -0.5280   0.18581   0.17998   0.0021  1.0001  0.0714  -1.5093   0.0000   0.0000   0.0000   0.2442
 -13.000  -0.4734   0.16298   0.15717   0.0011  1.0001  0.0763  -1.3487   0.0000   0.0000   0.0000   0.2427
 -12.000  -0.4502   0.15083   0.14509  -0.0051  1.0001  0.0862  -1.4064   0.0000   0.0000   0.0000   0.2297
 -11.000  -0.4287   0.13617   0.13055  -0.0103  1.0001  0.0917  -1.4811   0.0000   0.0000   0.0000   0.2174
 -10.000  -0.4346   0.12766   0.12222  -0.0209  1.0001  0.1052  -1.6816   0.0000   0.0000   0.0000   0.1945
  -9.000  -0.3916   0.11066   0.10526  -0.0204  1.0001  0.1205  -1.5961   0.0000   0.0000   0.0000   0.1907
  -8.000  -0.3702   0.09649   0.09127  -0.0230  1.0001  0.1305  -1.6220   0.0000   0.0000   0.0000   0.1812
  -7.000  -0.3999   0.08547   0.08065  -0.0266  1.0001  0.1420  -1.8052   0.0000   0.0000   0.0000   0.1784
  -6.000  -0.4225   0.05847   0.05358  -0.0439  1.0001  0.0822  -2.4872   0.0000   0.0000   0.0000   0.1412
  -5.000  -0.3566   0.03231   0.02541  -0.0615  1.0001  0.0839  -2.8857   0.0000   0.0000   0.0000   0.0718
  -4.000  -0.2434   0.02344   0.01501  -0.0645  1.0001  0.1252  -2.4889   0.0000   0.0000   0.0000  -0.0217
  -3.000  -0.1339   0.02089   0.01227  -0.0649  1.0001  0.2039  -1.9135   0.0000   0.0000   0.0000  -0.2431
  -2.000  -0.0267   0.01946   0.01093  -0.0654  1.0001  0.2992  -1.3184   0.0000   0.0000   0.0000  -2.2301
  -1.000   0.1104   0.01886   0.01106  -0.0721  0.9886  0.4650  -0.7707   0.0000   0.0000   0.0000   0.9056
   0.000   0.2938   0.01751   0.01089  -0.0827  0.9307  0.9999  -0.6372   0.0000   0.0000   0.0000   0.5306
   1.000   0.4728   0.01668   0.00964  -0.0916  0.8644  0.9999  -0.8391   0.0000   0.0000   0.0000   0.4414
   2.000   0.6054   0.01503   0.00776  -0.0888  0.7751  0.9999  -1.0332   0.0000   0.0000   0.0000   0.3937
   3.000   0.7165   0.01500   0.00696  -0.0832  0.6276  0.9999  -1.2332   0.0000   0.0000   0.0000   0.3621
   4.000   0.8184   0.01708   0.00805  -0.0789  0.4817  0.9999  -1.4375   0.0000   0.0000   0.0000   0.3414
   5.000   0.9225   0.01981   0.01019  -0.0762  0.3908  0.9999  -1.6748   0.0000   0.0000   0.0000   0.3267
   6.000   1.0268   0.02291   0.01321  -0.0741  0.3290  0.9999  -1.9621   0.0000   0.0000   0.0000   0.3151
   7.000   1.1301   0.02659   0.01690  -0.0719  0.2831  0.9999  -2.3430   0.0000   0.0000   0.0000   0.3054
   8.000   1.2254   0.03105   0.02194  -0.0688  0.2439  0.9999  -3.0177   0.0000   0.0000   0.0000   0.2967
   9.000   1.3103   0.03599   0.02748  -0.0645  0.2069  0.9999  -3.7058   0.0000   0.0000   0.0000   0.2885
  10.000   1.3781   0.04225   0.03458  -0.0587  0.1747  0.9999  -4.3439   0.0000   0.0000   0.0000   0.2804
  11.000   1.4241   0.04738   0.04032  -0.0508  0.1411  0.9999  -4.9384   0.0000   0.0000   0.0000   0.2719
  12.000   1.4371   0.05208   0.04537  -0.0405  0.1118  0.9999  -5.4137   0.0000   0.0000   0.0000   0.2627
  13.000   1.2467   0.08632   0.08125  -0.0439  0.1206  0.9999  -4.5667   0.0000   0.0000   0.0000   0.2686
  16.000   1.0239   0.19895   0.19382  -0.1057  0.0967  0.9999  -2.5615   0.0000   0.0000   0.0000   0.3351
  17.000   1.0460   0.23113   0.22606  -0.1161  0.1142  0.9999  -2.2268   0.0000   0.0000   0.0000   0.3422
  18.000   1.0474   0.24262   0.23749  -0.1318  0.1013  0.9999  -1.9966   0.0000   0.0000   0.0000   0.3556
  19.000   1.0833   0.26254   0.25743  -0.1382  0.0972  0.9999  -2.0055   0.0000   0.0000   0.0000   0.3557
  20.000   1.1052   0.27379   0.26868  -0.1515  0.0863  0.9999  -1.9040   0.0000   0.0000   0.0000   0.3633
  21.000   1.1490   0.29713   0.29210  -0.1550  0.0816  0.9999  -2.0857   0.0000   0.0000   0.0000   0.3592
  22.000   1.1686   0.30278   0.29773  -0.1712  0.0713  0.9999  -1.9641   0.0000   0.0000   0.0000   0.3688
  23.000   1.2168   0.33351   0.32865  -0.1720  0.0661  0.9999  -2.2859   0.0000   0.0000   0.0000   0.3615
  24.000   1.2327   0.33130   0.32639  -0.1917  0.0622  0.9999  -2.0586   0.0000   0.0000   0.0000   0.3734
  25.000   1.2658   0.34424   0.33941  -0.2008  0.0539  0.9999  -2.1566   0.0000   0.0000   0.0000   0.3740
  26.000   1.3016   0.37116   0.36640  -0.2058  0.0509  0.9999  -2.3776   0.0000   0.0000   0.0000   0.3711
  27.000   1.3269   0.37022   0.36546  -0.2238  0.0465  0.9999  -2.2212   0.0000   0.0000   0.0000   0.3790
  28.000   1.3575   0.38155   0.37693  -0.2336  0.0398  0.9999  -2.3244   0.0000   0.0000   0.0000   0.3795
  29.000   1.3897   0.41763   0.41310  -0.2370  0.0371  0.9999  -2.5379   0.0000   0.0000   0.0000   0.3752
  30.000   1.4136   0.40762   0.40308  -0.2551  0.0361  0.9999  -2.3212   0.0000   0.0000   0.0000   0.3819


