xflr5 v6.61

 Calculated polar for: TJ1_8_00

 1 1 Reynolds number fixed          Mach number fixed         

 xtrf =   1.000 (top)        1.000 (bottom)
 Mach =   0.200     Re =     0.090 e 6     Ncrit =   9.000

  alpha     CL        CD       CDp       Cm    Top Xtr Bot Xtr   Cpmin    Chinge    XCp    
 ------- -------- --------- --------- -------- ------- ------- -------- --------- ---------
 -24.000  -0.5494   0.25340   0.24846   0.0383  1.0001  0.0282  -0.9896   0.0000   0.0000   0.0000   0.3112
 -23.000  -0.5284   0.24098   0.23598   0.0332  1.0001  0.0311  -0.9169   0.0000   0.0000   0.0000   0.3054
 -22.000  -0.8182   0.28519   0.27938   0.0769  1.0001  0.0295  -1.5660   0.0000   0.0000   0.0000   0.3299
 -21.000  -0.7817   0.27236   0.26653   0.0683  1.0001  0.0330  -1.5128   0.0000   0.0000   0.0000   0.3246
 -20.000  -0.7447   0.25988   0.25404   0.0593  1.0001  0.0366  -1.5215   0.0000   0.0000   0.0000   0.3179
 -19.000  -0.7113   0.25338   0.24750   0.0479  1.0001  0.0392  -1.6110   0.0000   0.0000   0.0000   0.3068
 -18.000  -0.6890   0.25042   0.24461   0.0367  1.0001  0.0397  -1.7115   0.0000   0.0000   0.0000   0.2940
 -17.000  -0.6376   0.22023   0.21439   0.0344  1.0001  0.0428  -1.4630   0.0000   0.0000   0.0000   0.2950
 -16.000  -0.6018   0.20671   0.20089   0.0280  1.0001  0.0478  -1.3569   0.0000   0.0000   0.0000   0.2883
 -15.000  -0.5771   0.19902   0.19322   0.0179  1.0001  0.0545  -1.4891   0.0000   0.0000   0.0000   0.2737
 -14.000  -0.5477   0.18267   0.17693   0.0116  1.0001  0.0565  -1.5425   0.0000   0.0000   0.0000   0.2643
 -13.000  -0.5089   0.16639   0.16066   0.0087  1.0001  0.0631  -1.4183   0.0000   0.0000   0.0000   0.2607
 -12.000  -0.4921   0.15642   0.15077   0.0004  1.0001  0.0705  -1.5074   0.0000   0.0000   0.0000   0.2451
 -11.000  -0.4672   0.14057   0.13502  -0.0046  1.0001  0.0738  -1.4958   0.0000   0.0000   0.0000   0.2348
 -10.000  -0.4354   0.12651   0.12097  -0.0075  1.0001  0.0833  -1.3703   0.0000   0.0000   0.0000   0.2278
  -9.000  -0.4328   0.11504   0.10971  -0.0174  1.0001  0.0897  -1.5004   0.0000   0.0000   0.0000   0.2053
  -8.000  -0.3988   0.10100   0.09578  -0.0187  1.0001  0.1024  -1.4033   0.0000   0.0000   0.0000   0.1991
  -7.000  -0.3875   0.08840   0.08344  -0.0215  1.0001  0.1117  -1.4539   0.0000   0.0000   0.0000   0.1910
  -6.000  -0.3899   0.07657   0.07191  -0.0287  1.0001  0.1255  -1.5828   0.0000   0.0000   0.0000   0.1737
  -4.000  -0.2374   0.03181   0.02487  -0.0633  1.0001  0.0695  -2.4343   0.0000   0.0000   0.0000  -0.0205
  -3.000  -0.1101   0.02146   0.01268  -0.0675  1.0001  0.0870  -2.2855   0.0000   0.0000   0.0000  -0.3701
  -2.000   0.0141   0.01718   0.00870  -0.0699  1.0001  0.2604  -1.7050   0.0000   0.0000   0.0000   5.2306
  -1.000   0.1272   0.01490   0.00817  -0.0701  1.0001  0.6760  -1.0325   0.0000   0.0000   0.0000   0.8026
   0.000   0.2068   0.01558   0.00864  -0.0657  1.0001  0.9999  -0.5516   0.0000   0.0000   0.0000   0.5670
   1.000   0.4277   0.01676   0.00932  -0.0870  0.9372  0.9999  -0.6981   0.0000   0.0000   0.0000   0.4516
   2.000   0.5984   0.01572   0.00833  -0.0935  0.8603  0.9999  -0.9201   0.0000   0.0000   0.0000   0.4039
   3.000   0.7197   0.01424   0.00673  -0.0880  0.7376  0.9999  -1.1410   0.0000   0.0000   0.0000   0.3690
   4.000   0.8206   0.01553   0.00704  -0.0812  0.5382  0.9999  -1.3719   0.0000   0.0000   0.0000   0.3449
   5.000   0.9201   0.01848   0.00924  -0.0774  0.3997  0.9999  -1.6992   0.0000   0.0000   0.0000   0.3291
   6.000   1.0223   0.02183   0.01240  -0.0747  0.3160  0.9999  -2.4013   0.0000   0.0000   0.0000   0.3169
   7.000   1.1226   0.02567   0.01631  -0.0718  0.2509  0.9999  -3.1988   0.0000   0.0000   0.0000   0.3067
   8.000   1.2120   0.02949   0.02076  -0.0675  0.1869  0.9999  -3.9904   0.0000   0.0000   0.0000   0.2972
   9.000   1.2763   0.03256   0.02424  -0.0605  0.1103  0.9999  -4.8045   0.0000   0.0000   0.0000   0.2874
  10.000   1.3123   0.04209   0.03441  -0.0509  0.0590  0.9999  -5.1186   0.0000   0.0000   0.0000   0.2775
  11.000   1.3143   0.05644   0.04968  -0.0416  0.0511  0.9999  -5.2635   0.0000   0.0000   0.0000   0.2691
  12.000   1.2448   0.07436   0.06878  -0.0378  0.0507  0.9999  -5.0673   0.0000   0.0000   0.0000   0.2665
  13.000   1.0539   0.13175   0.12704  -0.0770  0.0613  0.9999  -3.5263   0.0000   0.0000   0.0000   0.3092
  14.000   1.0132   0.16554   0.16064  -0.0933  0.0639  0.9999  -2.8531   0.0000   0.0000   0.0000   0.3279
  15.000   0.7320   0.17008   0.16545  -0.0743  0.1297  0.9999  -1.5215   0.0000   0.0000   0.0000   0.3400
  16.000   0.7447   0.18442   0.17987  -0.0777  0.1137  0.9999  -1.4685   0.0000   0.0000   0.0000   0.3419
  17.000   0.7359   0.19436   0.18982  -0.0846  0.1020  0.9999  -1.2982   0.0000   0.0000   0.0000   0.3517
  18.000   0.7521   0.20962   0.20512  -0.0885  0.0967  0.9999  -1.2972   0.0000   0.0000   0.0000   0.3532
  19.000   0.7591   0.22092   0.21648  -0.0940  0.0852  0.9999  -1.2570   0.0000   0.0000   0.0000   0.3582
  20.000   0.7687   0.23467   0.23026  -0.0993  0.0783  0.9999  -1.2069   0.0000   0.0000   0.0000   0.3623
  21.000   0.7845   0.24809   0.24380  -0.1034  0.0688  0.9999  -1.2769   0.0000   0.0000   0.0000   0.3635
  22.000   0.8012   0.26545   0.26120  -0.1074  0.0655  0.9999  -1.3094   0.0000   0.0000   0.0000   0.3642
  23.000   0.8051   0.27634   0.27216  -0.1141  0.0572  0.9999  -1.2020   0.0000   0.0000   0.0000   0.3704
  24.000   0.8348   0.30005   0.29595  -0.1157  0.0510  0.9999  -1.3822   0.0000   0.0000   0.0000   0.3653
  25.000   0.8281   0.30638   0.30232  -0.1237  0.0486  0.9999  -1.2147   0.0000   0.0000   0.0000   0.3746
  26.000   0.8382   0.32090   0.31697  -0.1288  0.0419  0.9999  -1.2147   0.0000   0.0000   0.0000   0.3770
  27.000   0.8630   0.34654   0.34269  -0.1306  0.0371  0.9999  -1.3979   0.0000   0.0000   0.0000   0.3725
  28.000   0.8584   0.35391   0.35011  -0.1378  0.0363  0.9999  -1.2084   0.0000   0.0000   0.0000   0.3797
  29.000   0.8641   0.36771   0.36399  -0.1436  0.0321  0.9999  -1.0947   0.0000   0.0000   0.0000   0.3832
  30.000   0.8716   0.38303   0.37944  -0.1482  0.0278  0.9999  -1.0731   0.0000   0.0000   0.0000   0.3847


