xflr5 v6.61

 Calculated polar for: TJ1_11_00

 1 1 Reynolds number fixed          Mach number fixed         

 xtrf =   1.000 (top)        1.000 (bottom)
 Mach =   0.200     Re =     0.500 e 6     Ncrit =   9.000

  alpha     CL        CD       CDp       Cm    Top Xtr Bot Xtr   Cpmin    Chinge    XCp    
 ------- -------- --------- --------- -------- ------- ------- -------- --------- ---------
 -29.000  -1.0178   0.36158   0.35913   0.1406  1.0001  0.0068  -2.0751   0.0000   0.0000   0.0000   0.3552
 -28.000  -0.9871   0.35145   0.34898   0.1306  1.0001  0.0073  -1.9058   0.0000   0.0000   0.0000   0.3518
 -27.000  -0.9543   0.34051   0.33801   0.1202  1.0001  0.0083  -1.7945   0.0000   0.0000   0.0000   0.3477
 -26.000  -0.9200   0.32850   0.32598   0.1099  1.0001  0.0097  -1.7335   0.0000   0.0000   0.0000   0.3431
 -25.000  -0.8830   0.31622   0.31368   0.0983  1.0001  0.0107  -1.8808   0.0000   0.0000   0.0000   0.3366
 -24.000  -0.8482   0.30421   0.30166   0.0873  1.0001  0.0108  -1.9734   0.0000   0.0000   0.0000   0.3297
 -23.000  -0.8128   0.29150   0.28892   0.0772  1.0001  0.0109  -1.9709   0.0000   0.0000   0.0000   0.3233
 -22.000  -0.7777   0.27566   0.27309   0.0697  1.0001  0.0115  -1.8654   0.0000   0.0000   0.0000   0.3194
 -21.000  -0.7405   0.26380   0.26123   0.0615  1.0001  0.0123  -1.6814   0.0000   0.0000   0.0000   0.3143
 -20.000  -0.7031   0.25129   0.24872   0.0530  1.0001  0.0138  -1.6235   0.0000   0.0000   0.0000   0.3079
 -19.000  -0.6654   0.23817   0.23559   0.0426  1.0001  0.0169  -1.7733   0.0000   0.0000   0.0000   0.2974
 -18.000  -0.3850   0.17804   0.17575  -0.0021  1.0001  0.0173  -1.2342   0.0000   0.0000   0.0000   0.2352
 -17.000  -0.3609   0.16511   0.16283  -0.0059  1.0001  0.0186  -1.1697   0.0000   0.0000   0.0000   0.2244
 -16.000  -0.3359   0.15598   0.15369  -0.0103  1.0001  0.0198  -1.0507   0.0000   0.0000   0.0000   0.2107
 -15.000  -0.3142   0.14661   0.14433  -0.0148  1.0001  0.0219  -1.0543   0.0000   0.0000   0.0000   0.1943
 -14.000  -0.3008   0.13734   0.13506  -0.0204  1.0001  0.0259  -1.1932   0.0000   0.0000   0.0000   0.1731
 -13.000  -0.2921   0.12855   0.12627  -0.0244  1.0001  0.0265  -1.3149   0.0000   0.0000   0.0000   0.1568
 -12.000  -0.3181   0.10909   0.10681  -0.0283  1.0001  0.0176  -2.1043   0.0000   0.0000   0.0000   0.1500
 -11.000  -0.4686   0.11079   0.10834  -0.0166  1.0001  0.0160  -2.8016   0.0000   0.0000   0.0000   0.2027
 -10.000  -0.7034   0.04548   0.04280  -0.0607  1.0001  0.0134  -6.4416   0.0000   0.0000   0.0000   0.1525
  -9.000  -0.7185   0.02685   0.02304  -0.0720  0.9984  0.0139  -6.6365   0.0000   0.0000   0.0000   0.1399
  -8.000  -0.5844   0.01950   0.01469  -0.0818  0.9909  0.0170  -5.7242   0.0000   0.0000   0.0000   0.1004
  -7.000  -0.4509   0.01452   0.00903  -0.0876  0.9808  0.0242  -4.7393   0.0000   0.0000   0.0000   0.0459
  -6.000  -0.2964   0.01200   0.00621  -0.0957  0.9747  0.0425  -3.5908   0.0000   0.0000   0.0000  -0.0840
  -5.000  -0.1596   0.01057   0.00482  -0.0994  0.9598  0.0800  -2.5663   0.0000   0.0000   0.0000  -0.3881
  -4.000  -0.0437   0.00967   0.00393  -0.0981  0.9364  0.1209  -1.8229   0.0000   0.0000   0.0000  -2.0343
  -3.000   0.0649   0.00885   0.00317  -0.0949  0.9065  0.1709  -1.2622   0.0000   0.0000   0.0000   1.7304
  -2.000   0.1770   0.00817   0.00255  -0.0929  0.8662  0.2252  -0.8485   0.0000   0.0000   0.0000   0.7779
  -1.000   0.2911   0.00761   0.00207  -0.0914  0.8059  0.3063  -0.6478   0.0000   0.0000   0.0000   0.5639
   0.000   0.4043   0.00734   0.00191  -0.0901  0.7031  0.4721  -0.7930   0.0000   0.0000   0.0000   0.4712
   1.000   0.5130   0.00731   0.00219  -0.0882  0.5734  0.7530  -0.9515   0.0000   0.0000   0.0000   0.4190
   2.000   0.6148   0.00777   0.00248  -0.0843  0.4479  0.9999  -1.1194   0.0000   0.0000   0.0000   0.3833
   3.000   0.7273   0.00888   0.00300  -0.0836  0.3488  0.9999  -1.3193   0.0000   0.0000   0.0000   0.3603
   4.000   0.8393   0.00998   0.00371  -0.0829  0.2834  0.9999  -1.5475   0.0000   0.0000   0.0000   0.3430
   5.000   0.9509   0.01103   0.00457  -0.0819  0.2410  0.9999  -1.8051   0.0000   0.0000   0.0000   0.3294
   6.000   1.0607   0.01217   0.00562  -0.0807  0.2094  0.9999  -2.0816   0.0000   0.0000   0.0000   0.3181
   7.000   1.1678   0.01349   0.00687  -0.0789  0.1839  0.9999  -2.4425   0.0000   0.0000   0.0000   0.3084
   8.000   1.2737   0.01472   0.00808  -0.0770  0.1520  0.9999  -2.9975   0.0000   0.0000   0.0000   0.3000
   9.000   1.3749   0.01624   0.00968  -0.0744  0.1278  0.9999  -3.7722   0.0000   0.0000   0.0000   0.2921
  10.000   1.4705   0.01803   0.01154  -0.0709  0.1046  0.9999  -4.5834   0.0000   0.0000   0.0000   0.2847
  11.000   1.5548   0.02037   0.01395  -0.0661  0.0792  0.9999  -5.3858   0.0000   0.0000   0.0000   0.2773
  12.000   1.6125   0.02382   0.01747  -0.0579  0.0487  0.9999  -6.0730   0.0000   0.0000   0.0000   0.2690
  13.000   1.6329   0.03010   0.02389  -0.0481  0.0218  0.9999  -6.6481   0.0000   0.0000   0.0000   0.2607
  14.000   1.6304   0.03980   0.03404  -0.0415  0.0159  0.9999  -7.0955   0.0000   0.0000   0.0000   0.2547
  15.000   1.6051   0.05514   0.05001  -0.0423  0.0150  0.9999  -7.3982   0.0000   0.0000   0.0000   0.2534
  16.000   1.5335   0.08068   0.07622  -0.0518  0.0147  0.9999  -7.3203   0.0000   0.0000   0.0000   0.2587
  17.000   1.4353   0.11222   0.10834  -0.0653  0.0148  0.9999  -6.9465   0.0000   0.0000   0.0000   0.2685
  18.000   1.3641   0.14087   0.13740  -0.0790  0.0147  0.9999  -6.6566   0.0000   0.0000   0.0000   0.2792
  19.000   1.3278   0.16471   0.16158  -0.0919  0.0144  0.9999  -6.5412   0.0000   0.0000   0.0000   0.2886
  20.000   1.3065   0.18703   0.18426  -0.1053  0.0141  0.9999  -6.4483   0.0000   0.0000   0.0000   0.2981
  21.000   1.2777   0.21357   0.21119  -0.1230  0.0140  0.9999  -6.0760   0.0000   0.0000   0.0000   0.3123


