xflr5 v6.61

 Calculated polar for: TJ1_11_00

 1 1 Reynolds number fixed          Mach number fixed         

 xtrf =   1.000 (top)        1.000 (bottom)
 Mach =   0.200     Re =     0.090 e 6     Ncrit =   9.000

  alpha     CL        CD       CDp       Cm    Top Xtr Bot Xtr   Cpmin    Chinge    XCp    
 ------- -------- --------- --------- -------- ------- ------- -------- --------- ---------
 -23.000  -0.8065   0.29714   0.29113   0.0711  1.0001  0.0405  -1.7199   0.0000   0.0000   0.0000   0.3170
 -22.000  -0.7653   0.27812   0.27208   0.0654  1.0001  0.0435  -1.5315   0.0000   0.0000   0.0000   0.3156
 -21.000  -0.7274   0.26580   0.25975   0.0570  1.0001  0.0489  -1.4615   0.0000   0.0000   0.0000   0.3099
 -20.000  -0.6919   0.25621   0.25016   0.0464  1.0001  0.0539  -1.5181   0.0000   0.0000   0.0000   0.2999
 -19.000  -0.6705   0.25495   0.24891   0.0339  1.0001  0.0550  -1.6485   0.0000   0.0000   0.0000   0.2849
 -18.000  -0.6201   0.22814   0.22210   0.0301  1.0001  0.0574  -1.4874   0.0000   0.0000   0.0000   0.2834
 -17.000  -0.5801   0.21423   0.20820   0.0243  1.0001  0.0622  -1.3641   0.0000   0.0000   0.0000   0.2776
 -16.000  -0.5471   0.20241   0.19642   0.0161  1.0001  0.0694  -1.3398   0.0000   0.0000   0.0000   0.2660
 -15.000  -0.5468   0.19996   0.19409   0.0038  1.0001  0.0716  -1.5778   0.0000   0.0000   0.0000   0.2448
 -14.000  -0.4816   0.17440   0.16849   0.0040  1.0001  0.0780  -1.3794   0.0000   0.0000   0.0000   0.2460
 -13.000  -0.4745   0.16622   0.16041  -0.0057  1.0001  0.0879  -1.5568   0.0000   0.0000   0.0000   0.2268
 -12.000  -0.4272   0.14783   0.14207  -0.0069  1.0001  0.0983  -1.4616   0.0000   0.0000   0.0000   0.2228
 -11.000  -0.4324   0.13654   0.13095  -0.0169  1.0001  0.1064  -1.6855   0.0000   0.0000   0.0000   0.2010
 -10.000  -0.3957   0.12189   0.11633  -0.0188  1.0001  0.1207  -1.6234   0.0000   0.0000   0.0000   0.1929
  -9.000  -0.3704   0.10760   0.10217  -0.0215  1.0001  0.1346  -1.6131   0.0000   0.0000   0.0000   0.1828
  -8.000  -0.3601   0.09475   0.08952  -0.0251  1.0001  0.1512  -1.6492   0.0000   0.0000   0.0000   0.1723
  -7.000  -0.4690   0.06352   0.05848  -0.0492  1.0001  0.0882  -2.7888   0.0000   0.0000   0.0000   0.1384
  -6.000  -0.4568   0.03906   0.03282  -0.0588  1.0001  0.0865  -3.1279   0.0000   0.0000   0.0000   0.1147
  -5.000  -0.3683   0.02892   0.02143  -0.0612  1.0001  0.1168  -2.7810   0.0000   0.0000   0.0000   0.0771
  -4.000  -0.2632   0.02442   0.01621  -0.0618  1.0001  0.1664  -2.2720   0.0000   0.0000   0.0000   0.0079
  -3.000  -0.1553   0.02200   0.01331  -0.0624  1.0001  0.2275  -1.7016   0.0000   0.0000   0.0000  -0.1607
  -2.000  -0.0536   0.02101   0.01247  -0.0627  1.0001  0.3001  -1.2142   0.0000   0.0000   0.0000  -0.9373
  -1.000   0.1590   0.02015   0.01230  -0.0821  0.9571  0.4662  -0.7214   0.0000   0.0000   0.0000   0.7680
   0.000   0.3185   0.01778   0.01145  -0.0856  0.8972  0.9999  -0.7058   0.0000   0.0000   0.0000   0.5177
   1.000   0.4795   0.01634   0.00948  -0.0899  0.8288  0.9999  -0.8981   0.0000   0.0000   0.0000   0.4350
   2.000   0.6050   0.01497   0.00765  -0.0861  0.7287  0.9999  -1.0848   0.0000   0.0000   0.0000   0.3889
   3.000   0.7136   0.01566   0.00737  -0.0812  0.5832  0.9999  -1.2741   0.0000   0.0000   0.0000   0.3593
   4.000   0.8173   0.01785   0.00866  -0.0778  0.4626  0.9999  -1.4803   0.0000   0.0000   0.0000   0.3397
   5.000   0.9229   0.02054   0.01083  -0.0756  0.3863  0.9999  -1.7055   0.0000   0.0000   0.0000   0.3254
   6.000   1.0282   0.02361   0.01379  -0.0736  0.3326  0.9999  -1.9481   0.0000   0.0000   0.0000   0.3141
   7.000   1.1301   0.02715   0.01746  -0.0714  0.2906  0.9999  -2.2587   0.0000   0.0000   0.0000   0.3044
   8.000   1.2263   0.03139   0.02210  -0.0685  0.2559  0.9999  -2.6170   0.0000   0.0000   0.0000   0.2959
   9.000   1.3110   0.03693   0.02825  -0.0646  0.2269  0.9999  -3.2213   0.0000   0.0000   0.0000   0.2880
  10.000   1.3925   0.04239   0.03409  -0.0604  0.1989  0.9999  -3.8848   0.0000   0.0000   0.0000   0.2806
  11.000   1.4125   0.05150   0.04446  -0.0512  0.1766  0.9999  -4.2811   0.0000   0.0000   0.0000   0.2721
  12.000   1.3788   0.06291   0.05671  -0.0405  0.1608  0.9999  -4.4576   0.0000   0.0000   0.0000   0.2638
  13.000   1.3191   0.07853   0.07284  -0.0374  0.1484  0.9999  -4.4873   0.0000   0.0000   0.0000   0.2611
  16.000   0.9763   0.20931   0.20379  -0.1152  0.1705  0.9999  -2.0375   0.0000   0.0000   0.0000   0.3501
  17.000   1.0245   0.22711   0.22185  -0.1169  0.1472  0.9999  -2.2256   0.0000   0.0000   0.0000   0.3445
  18.000   1.0310   0.23882   0.23356  -0.1298  0.1204  0.9999  -2.0064   0.0000   0.0000   0.0000   0.3547
  19.000   1.0584   0.25493   0.24967  -0.1393  0.1064  0.9999  -1.9386   0.0000   0.0000   0.0000   0.3587
  20.000   1.1030   0.27491   0.26973  -0.1427  0.0975  0.9999  -2.0557   0.0000   0.0000   0.0000   0.3545
  21.000   1.1221   0.28458   0.27938  -0.1575  0.0868  0.9999  -1.9063   0.0000   0.0000   0.0000   0.3637
  22.000   1.1726   0.31203   0.30701  -0.1587  0.0818  0.9999  -2.1380   0.0000   0.0000   0.0000   0.3565
  23.000   1.1854   0.31320   0.30813  -0.1779  0.0740  0.9999  -1.9294   0.0000   0.0000   0.0000   0.3691
  24.000   1.2267   0.33228   0.32735  -0.1815  0.0669  0.9999  -2.1961   0.0000   0.0000   0.0000   0.3645
  25.000   1.2513   0.34317   0.33821  -0.1957  0.0650  0.9999  -2.1201   0.0000   0.0000   0.0000   0.3706
  26.000   1.2809   0.35316   0.34826  -0.2087  0.0567  0.9999  -2.0988   0.0000   0.0000   0.0000   0.3746
  27.000   1.3223   0.38910   0.38439  -0.2093  0.0511  0.9999  -2.4757   0.0000   0.0000   0.0000   0.3672
  28.000   1.3419   0.38002   0.37529  -0.2286  0.0498  0.9999  -2.2931   0.0000   0.0000   0.0000   0.3764
  29.000   1.3712   0.38853   0.38386  -0.2416  0.0423  0.9999  -2.2846   0.0000   0.0000   0.0000   0.3792
  30.000   1.4004   0.40402   0.39946  -0.2485  0.0380  0.9999  -2.4740   0.0000   0.0000   0.0000   0.3772


