xflr5 v6.61

 Calculated polar for: TJ1_9_00

 1 1 Reynolds number fixed          Mach number fixed         

 xtrf =   1.000 (top)        1.000 (bottom)
 Mach =   0.200     Re =     0.100 e 6     Ncrit =   9.000

  alpha     CL        CD       CDp       Cm    Top Xtr Bot Xtr   Cpmin    Chinge    XCp    
 ------- -------- --------- --------- -------- ------- ------- -------- --------- ---------
 -23.000  -0.8378   0.29548   0.28991   0.0825  1.0001  0.0290  -1.6189   0.0000   0.0000   0.0000   0.3313
 -22.000  -0.8013   0.28273   0.27713   0.0739  1.0001  0.0317  -1.5660   0.0000   0.0000   0.0000   0.3264
 -21.000  -0.7643   0.27018   0.26457   0.0648  1.0001  0.0349  -1.5402   0.0000   0.0000   0.0000   0.3203
 -20.000  -0.7275   0.25956   0.25395   0.0546  1.0001  0.0384  -1.5577   0.0000   0.0000   0.0000   0.3117
 -19.000  -0.7004   0.25655   0.25093   0.0425  1.0001  0.0395  -1.6474   0.0000   0.0000   0.0000   0.2985
 -18.000  -0.6592   0.23366   0.22807   0.0366  1.0001  0.0409  -1.5442   0.0000   0.0000   0.0000   0.2940
 -17.000  -0.6186   0.21775   0.21215   0.0318  1.0001  0.0462  -1.4141   0.0000   0.0000   0.0000   0.2909
 -16.000  -0.5843   0.20520   0.19962   0.0240  1.0001  0.0523  -1.4384   0.0000   0.0000   0.0000   0.2813
 -15.000  -0.5712   0.20111   0.19561   0.0125  1.0001  0.0549  -1.6250   0.0000   0.0000   0.0000   0.2630
 -14.000  -0.5244   0.17810   0.17258   0.0097  1.0001  0.0577  -1.4798   0.0000   0.0000   0.0000   0.2599
 -13.000  -0.4904   0.16422   0.15873   0.0054  1.0001  0.0637  -1.3658   0.0000   0.0000   0.0000   0.2530
 -12.000  -0.4784   0.15475   0.14934  -0.0038  1.0001  0.0708  -1.4563   0.0000   0.0000   0.0000   0.2347
 -11.000  -0.4491   0.13764   0.13233  -0.0078  1.0001  0.0740  -1.4178   0.0000   0.0000   0.0000   0.2257
 -10.000  -0.4185   0.12401   0.11873  -0.0110  1.0001  0.0833  -1.3848   0.0000   0.0000   0.0000   0.2172
  -9.000  -0.4186   0.11139   0.10632  -0.0213  1.0001  0.0897  -1.6001   0.0000   0.0000   0.0000   0.1934
  -8.000  -0.3877   0.09803   0.09307  -0.0228  1.0001  0.1028  -1.5596   0.0000   0.0000   0.0000   0.1858
  -7.000  -0.3822   0.08624   0.08156  -0.0238  1.0001  0.1177  -1.6084   0.0000   0.0000   0.0000   0.1832
  -6.000  -0.3926   0.07499   0.07061  -0.0249  1.0001  0.1307  -1.7027   0.0000   0.0000   0.0000   0.1831
  -5.000  -0.3506   0.04037   0.03484  -0.0570  1.0001  0.0674  -2.6567   0.0000   0.0000   0.0000   0.0830
  -4.000  -0.2340   0.02432   0.01647  -0.0656  1.0001  0.0767  -2.6785   0.0000   0.0000   0.0000  -0.0358
  -3.000  -0.1128   0.01907   0.01062  -0.0673  1.0001  0.1462  -2.1543   0.0000   0.0000   0.0000  -0.3551
  -2.000  -0.0013   0.01750   0.00921  -0.0682  1.0001  0.2797  -1.5069   0.0000   0.0000   0.0000  -51.5199
  -1.000   0.1084   0.01659   0.00924  -0.0695  1.0001  0.4818  -0.8989   0.0000   0.0000   0.0000   0.8937
   0.000   0.2914   0.01587   0.00935  -0.0816  0.9517  0.9999  -0.5889   0.0000   0.0000   0.0000   0.5292
   1.000   0.4785   0.01538   0.00850  -0.0930  0.8916  0.9999  -0.7946   0.0000   0.0000   0.0000   0.4425
   2.000   0.6090   0.01398   0.00699  -0.0907  0.8078  0.9999  -0.9877   0.0000   0.0000   0.0000   0.3962
   3.000   0.7198   0.01362   0.00606  -0.0848  0.6611  0.9999  -1.1941   0.0000   0.0000   0.0000   0.3642
   4.000   0.8197   0.01558   0.00695  -0.0798  0.4884  0.9999  -1.4115   0.0000   0.0000   0.0000   0.3428
   5.000   0.9216   0.01827   0.00904  -0.0769  0.3807  0.9999  -1.6657   0.0000   0.0000   0.0000   0.3279
   6.000   1.0254   0.02127   0.01189  -0.0746  0.3126  0.9999  -2.0376   0.0000   0.0000   0.0000   0.3162
   7.000   1.1274   0.02477   0.01552  -0.0721  0.2607  0.9999  -2.7656   0.0000   0.0000   0.0000   0.3062
   8.000   1.2242   0.02862   0.01964  -0.0690  0.2141  0.9999  -3.5402   0.0000   0.0000   0.0000   0.2974
   9.000   1.3081   0.03213   0.02366  -0.0642  0.1673  0.9999  -4.3134   0.0000   0.0000   0.0000   0.2887
  10.000   1.3688   0.03543   0.02765  -0.0570  0.1190  0.9999  -5.0472   0.0000   0.0000   0.0000   0.2797
  11.000   1.3813   0.04147   0.03422  -0.0457  0.0726  0.9999  -5.4998   0.0000   0.0000   0.0000   0.2695
  12.000   1.3618   0.05340   0.04681  -0.0366  0.0552  0.9999  -5.6339   0.0000   0.0000   0.0000   0.2618
  13.000   1.3105   0.07224   0.06643  -0.0360  0.0508  0.9999  -5.5540   0.0000   0.0000   0.0000   0.2608
  15.000   1.0289   0.17494   0.17020  -0.0968  0.0640  0.9999  -2.9633   0.0000   0.0000   0.0000   0.3275
  16.000   1.0282   0.20161   0.19680  -0.1096  0.0647  0.9999  -2.5513   0.0000   0.0000   0.0000   0.3393
  18.000   1.0598   0.24638   0.24160  -0.1362  0.0858  0.9999  -1.9322   0.0000   0.0000   0.0000   0.3591
  19.000   1.1003   0.26766   0.26294  -0.1405  0.0814  0.9999  -2.0788   0.0000   0.0000   0.0000   0.3567
  20.000   1.1205   0.27692   0.27218  -0.1550  0.0700  0.9999  -1.9761   0.0000   0.0000   0.0000   0.3655
  21.000   1.1644   0.30198   0.29732  -0.1579  0.0660  0.9999  -2.2230   0.0000   0.0000   0.0000   0.3609
  22.000   1.1833   0.30680   0.30210  -0.1759  0.0594  0.9999  -2.0371   0.0000   0.0000   0.0000   0.3720
  23.000   1.2202   0.32262   0.31808  -0.1816  0.0524  0.9999  -2.2361   0.0000   0.0000   0.0000   0.3699
  24.000   1.2496   0.33841   0.33385  -0.1930  0.0502  0.9999  -2.1961   0.0000   0.0000   0.0000   0.3734
  25.000   1.2803   0.34857   0.34404  -0.2067  0.0434  0.9999  -2.1742   0.0000   0.0000   0.0000   0.3782
  26.000   1.3134   0.36447   0.36005  -0.2132  0.0381  0.9999  -2.4116   0.0000   0.0000   0.0000   0.3764
  27.000   1.3431   0.38340   0.37898  -0.2233  0.0367  0.9999  -2.4096   0.0000   0.0000   0.0000   0.3778
  28.000   1.3731   0.38635   0.38200  -0.2393  0.0329  0.9999  -2.2444   0.0000   0.0000   0.0000   0.3832
  29.000   1.4023   0.39748   0.39320  -0.2503  0.0287  0.9999  -2.2533   0.0000   0.0000   0.0000   0.3845


