xflr5 v6.61

 Calculated polar for: TJ1_10_00

 1 1 Reynolds number fixed          Mach number fixed         

 xtrf =   1.000 (top)        1.000 (bottom)
 Mach =   0.200     Re =     0.025 e 6     Ncrit =   9.000

  alpha     CL        CD       CDp       Cm    Top Xtr Bot Xtr   Cpmin    Chinge    XCp    
 ------- -------- --------- --------- -------- ------- ------- -------- --------- ---------
 -30.000  -1.0483   0.37699   0.36632   0.1446  1.0001  0.0837  -1.7357   0.0000   0.0000   0.0000   0.3562
 -29.000  -1.0198   0.37683   0.36609   0.1319  1.0001  0.0877  -1.7551   0.0000   0.0000   0.0000   0.3500
 -28.000  -0.9878   0.35922   0.34844   0.1223  1.0001  0.0907  -1.7139   0.0000   0.0000   0.0000   0.3465
 -27.000  -0.9540   0.34437   0.33341   0.1132  1.0001  0.0979  -1.6439   0.0000   0.0000   0.0000   0.3433
 -26.000  -0.9238   0.34287   0.33187   0.1012  1.0001  0.1048  -1.6368   0.0000   0.0000   0.0000   0.3362
 -25.000  -0.8870   0.32260   0.31156   0.0931  1.0001  0.1105  -1.5663   0.0000   0.0000   0.0000   0.3331
 -24.000  -0.8523   0.31235   0.30117   0.0834  1.0001  0.1197  -1.5433   0.0000   0.0000   0.0000   0.3277
 -23.000  -0.8189   0.30247   0.29131   0.0735  1.0001  0.1246  -1.5309   0.0000   0.0000   0.0000   0.3212
 -22.000  -0.7805   0.28760   0.27639   0.0656  1.0001  0.1357  -1.4605   0.0000   0.0000   0.0000   0.3168
 -21.000  -0.7465   0.27713   0.26595   0.0565  1.0001  0.1424  -1.4229   0.0000   0.0000   0.0000   0.3097
 -20.000  -0.7109   0.26616   0.25498   0.0484  1.0001  0.1555  -1.4029   0.0000   0.0000   0.0000   0.3033
 -19.000  -0.6715   0.25051   0.23926   0.0416  1.0001  0.1687  -1.3650   0.0000   0.0000   0.0000   0.2981
 -18.000  -0.6355   0.23777   0.22658   0.0345  1.0001  0.1822  -1.3384   0.0000   0.0000   0.0000   0.2913
 -17.000  -0.6019   0.22600   0.21488   0.0275  1.0001  0.1963  -1.3135   0.0000   0.0000   0.0000   0.2837
 -16.000  -0.5684   0.21362   0.20258   0.0215  1.0001  0.2131  -1.2765   0.0000   0.0000   0.0000   0.2765
 -15.000  -0.5334   0.20005   0.18901   0.0163  1.0001  0.2331  -1.2437   0.0000   0.0000   0.0000   0.2699
 -14.000  -0.5066   0.18923   0.17831   0.0116  1.0001  0.2593  -1.2714   0.0000   0.0000   0.0000   0.2630
 -13.000  -0.4721   0.17465   0.16385   0.0083  1.0001  0.2910  -1.2764   0.0000   0.0000   0.0000   0.2580
 -12.000  -0.4426   0.16126   0.15060   0.0055  1.0001  0.3233  -1.2909   0.0000   0.0000   0.0000   0.2533
 -11.000  -0.4197   0.14924   0.13868   0.0038  1.0001  0.3633  -1.3097   0.0000   0.0000   0.0000   0.2503
 -10.000  -0.3927   0.13600   0.12561   0.0036  1.0001  0.4161  -1.3092   0.0000   0.0000   0.0000   0.2506
  -9.000  -0.3535   0.12083   0.11060   0.0051  1.0001  0.4980  -1.2732   0.0000   0.0000   0.0000   0.2557
  -8.000  -0.3127   0.10610   0.09598   0.0075  1.0001  0.6000  -1.2296   0.0000   0.0000   0.0000   0.2653
  -7.000  -0.0836   0.06975   0.05900  -0.0198  1.0001  0.9999  -1.0499   0.0000   0.0000   0.0000  -0.0170
  -6.000  -0.0448   0.05938   0.04861  -0.0243  1.0001  0.9999  -1.0251   0.0000   0.0000   0.0000  -0.3408
  -5.000  -0.3747   0.07422   0.06539  -0.0069  1.0001  0.3772  -1.6483   0.0000   0.0000   0.0000   0.2276
  -4.000  -0.3404   0.05716   0.04810  -0.0228  1.0001  0.3547  -1.7855   0.0000   0.0000   0.0000   0.1797
  -3.000  -0.2420   0.04241   0.03244  -0.0351  1.0001  0.4114  -1.6619   0.0000   0.0000   0.0000   0.1011
  -2.000  -0.1362   0.03415   0.02346  -0.0371  1.0001  0.5442  -1.3028   0.0000   0.0000   0.0000  -0.0278
  -1.000  -0.0574   0.02888   0.01843  -0.0286  1.0001  0.7603  -0.9764   0.0000   0.0000   0.0000  -0.2554
   0.000   0.1006   0.02703   0.01472  -0.0488  1.0001  0.9999  -0.6388   0.0000   0.0000   0.0000   0.7344
   1.000   0.1903   0.03004   0.01677  -0.0517  1.0001  0.9999  -0.5935   0.0000   0.0000   0.0000   0.5190
   2.000   0.2627   0.03494   0.02131  -0.0551  1.0001  0.9999  -0.6739   0.0000   0.0000   0.0000   0.4560
   3.000   0.3874   0.04425   0.03058  -0.0726  0.9582  0.9999  -0.7879   0.0000   0.0000   0.0000   0.4334
   4.000   0.5874   0.05333   0.03998  -0.0938  0.7931  0.9999  -0.9959   0.0000   0.0000   0.0000   0.4054
   5.000   0.7169   0.06078   0.04778  -0.0978  0.6831  0.9999  -1.1626   0.0000   0.0000   0.0000   0.3815
   6.000   0.7780   0.07180   0.05902  -0.0973  0.6142  0.9999  -1.2522   0.0000   0.0000   0.0000   0.3693
   7.000   0.7903   0.08694   0.07438  -0.0979  0.5785  0.9999  -1.2621   0.0000   0.0000   0.0000   0.3674
   8.000   0.7654   0.10457   0.09212  -0.1014  0.5885  0.9999  -1.2024   0.0000   0.0000   0.0000   0.3751
   9.000   0.6685   0.12163   0.10916  -0.1091  0.8265  0.9999  -1.0019   0.0000   0.0000   0.0000   0.4043
  10.000   0.7251   0.13737   0.12528  -0.1135  0.7554  0.9999  -1.0789   0.0000   0.0000   0.0000   0.3968
  11.000   0.7784   0.15368   0.14190  -0.1166  0.6827  0.9999  -1.1607   0.0000   0.0000   0.0000   0.3892
  12.000   0.8075   0.16645   0.15501  -0.1175  0.6233  0.9999  -1.2027   0.0000   0.0000   0.0000   0.3839
  13.000   0.8494   0.18179   0.17063  -0.1197  0.5578  0.9999  -1.3932   0.0000   0.0000   0.0000   0.3782
  14.000   0.8869   0.19637   0.18549  -0.1222  0.4980  0.9999  -1.5619   0.0000   0.0000   0.0000   0.3739
  15.000   0.9198   0.21073   0.20018  -0.1258  0.4507  0.9999  -1.6869   0.0000   0.0000   0.0000   0.3716
  16.000   0.9559   0.22592   0.21562  -0.1298  0.4012  0.9999  -1.7833   0.0000   0.0000   0.0000   0.3693
  17.000   0.9893   0.24059   0.23050  -0.1352  0.3608  0.9999  -1.8098   0.0000   0.0000   0.0000   0.3687
  18.000   1.0299   0.25956   0.24963  -0.1402  0.3184  0.9999  -1.8228   0.0000   0.0000   0.0000   0.3667
  19.000   1.0627   0.27415   0.26440  -0.1468  0.2836  0.9999  -1.8197   0.0000   0.0000   0.0000   0.3670
  20.000   1.0920   0.28505   0.27536  -0.1549  0.2556  0.9999  -1.7941   0.0000   0.0000   0.0000   0.3689
  21.000   1.1305   0.30381   0.29420  -0.1618  0.2321  0.9999  -1.8181   0.0000   0.0000   0.0000   0.3683
  22.000   1.1632   0.31742   0.30789  -0.1705  0.2147  0.9999  -1.8517   0.0000   0.0000   0.0000   0.3698
  23.000   1.1978   0.33324   0.32392  -0.1790  0.1980  0.9999  -1.9022   0.0000   0.0000   0.0000   0.3705
  24.000   1.2316   0.34883   0.33961  -0.1877  0.1812  0.9999  -1.9810   0.0000   0.0000   0.0000   0.3712
  25.000   1.2601   0.35505   0.34593  -0.1987  0.1673  0.9999  -2.0054   0.0000   0.0000   0.0000   0.3741
  26.000   1.2894   0.36489   0.35584  -0.2099  0.1575  0.9999  -2.0118   0.0000   0.0000   0.0000   0.3766
  27.000   1.3226   0.38279   0.37387  -0.2187  0.1463  0.9999  -2.1159   0.0000   0.0000   0.0000   0.3765
  28.000   1.3526   0.39291   0.38424  -0.2292  0.1333  0.9999  -2.1807   0.0000   0.0000   0.0000   0.3778
  29.000   1.3801   0.40128   0.39268  -0.2411  0.1268  0.9999  -2.1945   0.0000   0.0000   0.0000   0.3801
  30.000   1.4104   0.41953   0.41113  -0.2498  0.1157  0.9999  -2.2659   0.0000   0.0000   0.0000   0.3796


