xflr5 v6.61

 Calculated polar for: TJ1_11_00

 1 1 Reynolds number fixed          Mach number fixed         

 xtrf =   1.000 (top)        1.000 (bottom)
 Mach =   0.200     Re =     0.125 e 6     Ncrit =   9.000

  alpha     CL        CD       CDp       Cm    Top Xtr Bot Xtr   Cpmin    Chinge    XCp    
 ------- -------- --------- --------- -------- ------- ------- -------- --------- ---------
 -30.000  -1.0421   0.37186   0.36698   0.1481  1.0001  0.0200  -1.8554   0.0000   0.0000   0.0000   0.3574
 -29.000  -1.0111   0.36130   0.35638   0.1373  1.0001  0.0218  -1.7668   0.0000   0.0000   0.0000   0.3535
 -28.000  -0.9785   0.35033   0.34537   0.1264  1.0001  0.0242  -1.7468   0.0000   0.0000   0.0000   0.3491
 -27.000  -0.9442   0.34395   0.33892   0.1135  1.0001  0.0262  -1.7978   0.0000   0.0000   0.0000   0.3421
 -26.000  -0.9146   0.34303   0.33799   0.1001  1.0001  0.0266  -1.8686   0.0000   0.0000   0.0000   0.3335
 -25.000  -0.8782   0.31918   0.31414   0.0921  1.0001  0.0274  -1.8436   0.0000   0.0000   0.0000   0.3304
 -24.000  -0.8408   0.30249   0.29742   0.0851  1.0001  0.0291  -1.6802   0.0000   0.0000   0.0000   0.3285
 -23.000  -0.8041   0.29033   0.28520   0.0763  1.0001  0.0315  -1.5872   0.0000   0.0000   0.0000   0.3237
 -22.000  -0.7669   0.27805   0.27291   0.0670  1.0001  0.0348  -1.5222   0.0000   0.0000   0.0000   0.3176
 -21.000  -0.7305   0.26861   0.26346   0.0557  1.0001  0.0388  -1.5634   0.0000   0.0000   0.0000   0.3078
 -20.000  -0.7063   0.26671   0.26161   0.0429  1.0001  0.0397  -1.7260   0.0000   0.0000   0.0000   0.2938
 -19.000  -0.6598   0.24038   0.23524   0.0382  1.0001  0.0412  -1.6131   0.0000   0.0000   0.0000   0.2917
 -18.000  -0.6191   0.22617   0.22103   0.0325  1.0001  0.0443  -1.4667   0.0000   0.0000   0.0000   0.2872
 -17.000  -0.5820   0.21332   0.20819   0.0252  1.0001  0.0486  -1.3913   0.0000   0.0000   0.0000   0.2790
 -16.000  -0.5527   0.20286   0.19777   0.0153  1.0001  0.0541  -1.4284   0.0000   0.0000   0.0000   0.2641
 -15.000  -0.5406   0.19535   0.19034   0.0046  1.0001  0.0551  -1.5909   0.0000   0.0000   0.0000   0.2459
 -14.000  -0.4876   0.17242   0.16740   0.0033  1.0001  0.0585  -1.4484   0.0000   0.0000   0.0000   0.2445
 -13.000  -0.4552   0.15922   0.15424  -0.0015  1.0001  0.0657  -1.4337   0.0000   0.0000   0.0000   0.2349
 -12.000  -0.4599   0.14959   0.14472  -0.0142  1.0001  0.0715  -1.7481   0.0000   0.0000   0.0000   0.2083
 -11.000  -0.4083   0.13156   0.12674  -0.0125  1.0001  0.0815  -1.5647   0.0000   0.0000   0.0000   0.2087
 -10.000  -0.4170   0.11737   0.11272  -0.0242  1.0001  0.0896  -1.8542   0.0000   0.0000   0.0000   0.1823
  -9.000  -0.3755   0.10361   0.09900  -0.0238  1.0001  0.0996  -1.7162   0.0000   0.0000   0.0000   0.1775
  -8.000  -0.4123   0.08020   0.07580  -0.0366  1.0001  0.0687  -2.3634   0.0000   0.0000   0.0000   0.1528
  -7.000  -0.5244   0.04258   0.03743  -0.0599  1.0001  0.0557  -3.7377   0.0000   0.0000   0.0000   0.1283
  -6.000  -0.4608   0.02981   0.02343  -0.0624  1.0001  0.0680  -3.4808   0.0000   0.0000   0.0000   0.1074
  -5.000  -0.3580   0.02254   0.01502  -0.0636  1.0001  0.0970  -2.9613   0.0000   0.0000   0.0000   0.0649
  -4.000  -0.2517   0.02020   0.01228  -0.0636  1.0001  0.1444  -2.3476   0.0000   0.0000   0.0000  -0.0106
  -3.000  -0.1278   0.01903   0.01100  -0.0671  0.9943  0.2046  -1.6751   0.0000   0.0000   0.0000  -0.2857
  -2.000   0.0637   0.01796   0.01013  -0.0824  0.9618  0.3005  -0.9861   0.0000   0.0000   0.0000   1.5565
  -1.000   0.2484   0.01616   0.00913  -0.0946  0.9220  0.4675  -0.6162   0.0000   0.0000   0.0000   0.6314
   0.000   0.3698   0.01347   0.00796  -0.0894  0.8732  0.9286  -0.7545   0.0000   0.0000   0.0000   0.4904
   1.000   0.4974   0.01230   0.00629  -0.0882  0.7982  0.9999  -0.9242   0.0000   0.0000   0.0000   0.4247
   2.000   0.6108   0.01213   0.00542  -0.0843  0.6787  0.9999  -1.1006   0.0000   0.0000   0.0000   0.3845
   3.000   0.7151   0.01347   0.00572  -0.0805  0.5289  0.9999  -1.2872   0.0000   0.0000   0.0000   0.3580
   4.000   0.8183   0.01551   0.00695  -0.0778  0.4163  0.9999  -1.4964   0.0000   0.0000   0.0000   0.3395
   5.000   0.9236   0.01776   0.00876  -0.0758  0.3470  0.9999  -1.7274   0.0000   0.0000   0.0000   0.3254
   6.000   1.0295   0.02026   0.01104  -0.0740  0.2993  0.9999  -1.9801   0.0000   0.0000   0.0000   0.3142
   7.000   1.1336   0.02307   0.01392  -0.0720  0.2620  0.9999  -2.3012   0.0000   0.0000   0.0000   0.3046
   8.000   1.2347   0.02634   0.01735  -0.0696  0.2308  0.9999  -2.7073   0.0000   0.0000   0.0000   0.2962
   9.000   1.3279   0.02982   0.02123  -0.0662  0.2024  0.9999  -3.3897   0.0000   0.0000   0.0000   0.2883
  10.000   1.4088   0.03407   0.02608  -0.0615  0.1761  0.9999  -4.0725   0.0000   0.0000   0.0000   0.2806
  11.000   1.4780   0.03730   0.02957  -0.0554  0.1494  0.9999  -4.7767   0.0000   0.0000   0.0000   0.2728
  12.000   1.5092   0.04238   0.03543  -0.0458  0.1278  0.9999  -5.3207   0.0000   0.0000   0.0000   0.2640
  13.000   1.5018   0.04909   0.04277  -0.0355  0.1101  0.9999  -5.6953   0.0000   0.0000   0.0000   0.2555
  15.000   1.4262   0.07774   0.07249  -0.0363  0.0812  0.9999  -6.0008   0.0000   0.0000   0.0000   0.2531
  16.000   1.2698   0.12068   0.11636  -0.0594  0.0820  0.9999  -5.1610   0.0000   0.0000   0.0000   0.2731
  17.000   1.0526   0.20173   0.19728  -0.1078  0.0804  0.9999  -2.8880   0.0000   0.0000   0.0000   0.3310
  18.000   1.0586   0.22311   0.21867  -0.1212  0.0628  0.9999  -2.5887   0.0000   0.0000   0.0000   0.3418
  19.000   1.0739   0.24601   0.24156  -0.1338  0.0638  0.9999  -2.2826   0.0000   0.0000   0.0000   0.3508
  20.000   0.7617   0.22419   0.22030  -0.0871  0.0817  0.9999  -1.4358   0.0000   0.0000   0.0000   0.3451
  21.000   0.7455   0.23456   0.23069  -0.0964  0.0743  0.9999  -1.1716   0.0000   0.0000   0.0000   0.3594
  22.000   0.7706   0.24779   0.24400  -0.0989  0.0674  0.9999  -1.2576   0.0000   0.0000   0.0000   0.3565
  23.000   1.1885   0.31167   0.30738  -0.1780  0.0567  0.9999  -1.9907   0.0000   0.0000   0.0000   0.3686
  24.000   1.2278   0.32771   0.32352  -0.1822  0.0520  0.9999  -2.2833   0.0000   0.0000   0.0000   0.3646
  25.000   1.2565   0.34615   0.34197  -0.1931  0.0507  0.9999  -2.2726   0.0000   0.0000   0.0000   0.3676
  26.000   1.2827   0.35255   0.34839  -0.2096  0.0432  0.9999  -2.1464   0.0000   0.0000   0.0000   0.3748
  27.000   1.3148   0.36471   0.36068  -0.2175  0.0387  0.9999  -2.3698   0.0000   0.0000   0.0000   0.3739
  28.000   1.3460   0.38920   0.38522  -0.2245  0.0369  0.9999  -2.5034   0.0000   0.0000   0.0000   0.3725
  29.000   1.3727   0.38862   0.38464  -0.2426  0.0332  0.9999  -2.3023   0.0000   0.0000   0.0000   0.3797
  30.000   1.4009   0.39922   0.39531  -0.2536  0.0286  0.9999  -2.3409   0.0000   0.0000   0.0000   0.3808


