xflr5 v6.61

 Calculated polar for: TJ1_13_00

 1 1 Reynolds number fixed          Mach number fixed         

 xtrf =   1.000 (top)        1.000 (bottom)
 Mach =   0.200     Re =     0.070 e 6     Ncrit =   9.000

  alpha     CL        CD       CDp       Cm    Top Xtr Bot Xtr   Cpmin    Chinge    XCp    
 ------- -------- --------- --------- -------- ------- ------- -------- --------- ---------
 -24.000  -0.8020   0.29896   0.29201   0.0749  1.0001  0.0579  -1.5686   0.0000   0.0000   0.0000   0.3163
 -23.000  -0.7634   0.28626   0.27923   0.0667  1.0001  0.0621  -1.4982   0.0000   0.0000   0.0000   0.3118
 -22.000  -0.7258   0.27471   0.26767   0.0573  1.0001  0.0676  -1.4652   0.0000   0.0000   0.0000   0.3050
 -21.000  -0.6984   0.27264   0.26564   0.0445  1.0001  0.0712  -1.5412   0.0000   0.0000   0.0000   0.2913
 -20.000  -0.6562   0.25203   0.24506   0.0378  1.0001  0.0732  -1.4571   0.0000   0.0000   0.0000   0.2861
 -19.000  -0.6127   0.23696   0.22994   0.0321  1.0001  0.0794  -1.3721   0.0000   0.0000   0.0000   0.2818
 -18.000  -0.5879   0.23134   0.22438   0.0208  1.0001  0.0879  -1.4971   0.0000   0.0000   0.0000   0.2662
 -17.000  -0.5404   0.21146   0.20455   0.0167  1.0001  0.0940  -1.4253   0.0000   0.0000   0.0000   0.2621
 -16.000  -0.5158   0.20285   0.19600   0.0076  1.0001  0.1045  -1.5109   0.0000   0.0000   0.0000   0.2470
 -15.000  -0.4742   0.18544   0.17860   0.0030  1.0001  0.1101  -1.4726   0.0000   0.0000   0.0000   0.2391
 -14.000  -0.4690   0.17904   0.17231  -0.0060  1.0001  0.1222  -1.6040   0.0000   0.0000   0.0000   0.2213
 -13.000  -0.4253   0.16173   0.15506  -0.0091  1.0001  0.1384  -1.5193   0.0000   0.0000   0.0000   0.2128
 -12.000  -0.3889   0.14592   0.13931  -0.0122  1.0001  0.1497  -1.4598   0.0000   0.0000   0.0000   0.2030
 -11.000  -0.3679   0.13257   0.12606  -0.0165  1.0001  0.1653  -1.4664   0.0000   0.0000   0.0000   0.1904
 -10.000  -0.3744   0.12276   0.11642  -0.0224  1.0001  0.1910  -1.5828   0.0000   0.0000   0.0000   0.1770
  -9.000  -0.3602   0.10857   0.10235  -0.0250  1.0001  0.2104  -1.6022   0.0000   0.0000   0.0000   0.1684
  -8.000  -0.3654   0.09906   0.09308  -0.0239  1.0001  0.2435  -1.5971   0.0000   0.0000   0.0000   0.1743
  -6.000  -0.4827   0.05211   0.04600  -0.0428  1.0001  0.1641  -2.3866   0.0000   0.0000   0.0000   0.1540
  -5.000  -0.4158   0.03652   0.02884  -0.0517  1.0001  0.1903  -2.2274   0.0000   0.0000   0.0000   0.1181
  -4.000  -0.3190   0.03092   0.02253  -0.0534  1.0001  0.2284  -1.8357   0.0000   0.0000   0.0000   0.0747
  -3.000  -0.2204   0.02813   0.01942  -0.0542  1.0001  0.2727  -1.4707   0.0000   0.0000   0.0000  -0.0043
  -2.000  -0.0785   0.02693   0.01803  -0.0631  0.9834  0.3366  -1.1508   0.0000   0.0000   0.0000  -0.5690
  -1.000   0.1411   0.02595   0.01737  -0.0826  0.9243  0.4547  -0.7776   0.0000   0.0000   0.0000   0.8385
   0.000   0.3119   0.02330   0.01599  -0.0875  0.8570  0.7014  -0.7913   0.0000   0.0000   0.0000   0.5293
   1.000   0.4579   0.02013   0.01289  -0.0853  0.7791  0.9999  -0.9725   0.0000   0.0000   0.0000   0.4332
   2.000   0.5924   0.01870   0.01066  -0.0827  0.6761  0.9999  -1.1662   0.0000   0.0000   0.0000   0.3853
   3.000   0.7051   0.01973   0.01066  -0.0789  0.5598  0.9999  -1.3509   0.0000   0.0000   0.0000   0.3565
   4.000   0.8122   0.02213   0.01234  -0.0762  0.4709  0.9999  -1.5393   0.0000   0.0000   0.0000   0.3374
   5.000   0.9185   0.02517   0.01499  -0.0742  0.4096  0.9999  -1.7470   0.0000   0.0000   0.0000   0.3233
   6.000   1.0203   0.02902   0.01881  -0.0721  0.3645  0.9999  -1.9568   0.0000   0.0000   0.0000   0.3121
   7.000   1.1147   0.03370   0.02374  -0.0694  0.3286  0.9999  -2.1768   0.0000   0.0000   0.0000   0.3026
   8.000   1.1997   0.03934   0.02977  -0.0660  0.2988  0.9999  -2.3931   0.0000   0.0000   0.0000   0.2941
   9.000   1.2455   0.04842   0.03973  -0.0601  0.2761  0.9999  -2.5732   0.0000   0.0000   0.0000   0.2862
  10.000   1.2071   0.06298   0.05518  -0.0512  0.2579  0.9999  -2.5815   0.0000   0.0000   0.0000   0.2792
  14.000   0.9152   0.18750   0.18052  -0.0984  0.2675  0.9999  -1.5462   0.0000   0.0000   0.0000   0.3413
  15.000   0.9005   0.19672   0.18978  -0.1068  0.2416  0.9999  -1.4515   0.0000   0.0000   0.0000   0.3509
  16.000   0.9300   0.21049   0.20366  -0.1127  0.2227  0.9999  -1.5710   0.0000   0.0000   0.0000   0.3519
  17.000   0.9661   0.22407   0.21742  -0.1179  0.2022  0.9999  -1.7475   0.0000   0.0000   0.0000   0.3510
  18.000   0.9930   0.23746   0.23092  -0.1261  0.1872  0.9999  -1.8444   0.0000   0.0000   0.0000   0.3541
  19.000   1.0228   0.25123   0.24482  -0.1344  0.1732  0.9999  -1.9232   0.0000   0.0000   0.0000   0.3567
  20.000   1.0554   0.26487   0.25860  -0.1424  0.1551  0.9999  -1.9730   0.0000   0.0000   0.0000   0.3582
  21.000   1.0998   0.28173   0.27561  -0.1466  0.1321  0.9999  -2.0465   0.0000   0.0000   0.0000   0.3545
  22.000   1.1223   0.29311   0.28707  -0.1594  0.1183  0.9999  -1.9320   0.0000   0.0000   0.0000   0.3610
  23.000   1.1523   0.30709   0.30107  -0.1700  0.1086  0.9999  -1.8937   0.0000   0.0000   0.0000   0.3643
  24.000   1.2015   0.33261   0.32675  -0.1720  0.0983  0.9999  -2.0772   0.0000   0.0000   0.0000   0.3575
  25.000   1.2167   0.33369   0.32779  -0.1900  0.0928  0.9999  -1.9026   0.0000   0.0000   0.0000   0.3680
  26.000   1.2510   0.34683   0.34103  -0.1984  0.0844  0.9999  -2.0024   0.0000   0.0000   0.0000   0.3677
  27.000   1.2815   0.36240   0.35671  -0.2082  0.0808  0.9999  -2.0788   0.0000   0.0000   0.0000   0.3687
  28.000   1.3096   0.36951   0.36390  -0.2215  0.0722  0.9999  -2.0806   0.0000   0.0000   0.0000   0.3724
  29.000   1.3444   0.39087   0.38541  -0.2266  0.0669  0.9999  -2.3115   0.0000   0.0000   0.0000   0.3687
  30.000   1.3673   0.39301   0.38755  -0.2426  0.0640  0.9999  -2.2444   0.0000   0.0000   0.0000   0.3744


