xflr5 v6.61

 Calculated polar for: TJ1_9_00

 1 1 Reynolds number fixed          Mach number fixed         

 xtrf =   1.000 (top)        1.000 (bottom)
 Mach =   0.200     Re =     0.050 e 6     Ncrit =   9.000

  alpha     CL        CD       CDp       Cm    Top Xtr Bot Xtr   Cpmin    Chinge    XCp    
 ------- -------- --------- --------- -------- ------- ------- -------- --------- ---------
 -30.000  -1.0659   0.38097   0.37351   0.1510  1.0001  0.0386  -1.8589   0.0000   0.0000   0.0000   0.3618
 -29.000  -1.0375   0.38649   0.37899   0.1369  1.0001  0.0395  -1.9016   0.0000   0.0000   0.0000   0.3546
 -28.000  -1.0083   0.37713   0.36965   0.1254  1.0001  0.0400  -1.8807   0.0000   0.0000   0.0000   0.3492
 -27.000  -0.9730   0.34437   0.33672   0.1196  1.0001  0.0429  -1.7144   0.0000   0.0000   0.0000   0.3493
 -26.000  -0.9395   0.33216   0.32445   0.1100  1.0001  0.0473  -1.6521   0.0000   0.0000   0.0000   0.3453
 -25.000  -0.9049   0.32129   0.31352   0.0996  1.0001  0.0519  -1.6223   0.0000   0.0000   0.0000   0.3401
 -24.000  -0.8726   0.31935   0.31158   0.0869  1.0001  0.0546  -1.6544   0.0000   0.0000   0.0000   0.3314
 -23.000  -0.8413   0.31122   0.30343   0.0760  1.0001  0.0556  -1.6900   0.0000   0.0000   0.0000   0.3237
 -22.000  -0.7983   0.28417   0.27629   0.0711  1.0001  0.0601  -1.5358   0.0000   0.0000   0.0000   0.3234
 -21.000  -0.7614   0.27177   0.26388   0.0624  1.0001  0.0661  -1.4920   0.0000   0.0000   0.0000   0.3175
 -20.000  -0.7341   0.27160   0.26375   0.0500  1.0001  0.0713  -1.5658   0.0000   0.0000   0.0000   0.3052
 -19.000  -0.6895   0.24698   0.23907   0.0450  1.0001  0.0757  -1.4222   0.0000   0.0000   0.0000   0.3030
 -18.000  -0.6523   0.23403   0.22612   0.0375  1.0001  0.0837  -1.3724   0.0000   0.0000   0.0000   0.2963
 -17.000  -0.6362   0.23439   0.22658   0.0259  1.0001  0.0883  -1.5161   0.0000   0.0000   0.0000   0.2808
 -16.000  -0.5823   0.20780   0.19997   0.0231  1.0001  0.0960  -1.3669   0.0000   0.0000   0.0000   0.2801
 -15.000  -0.5634   0.20187   0.19407   0.0140  1.0001  0.1049  -1.4350   0.0000   0.0000   0.0000   0.2662
 -14.000  -0.5184   0.18188   0.17411   0.0106  1.0001  0.1130  -1.3165   0.0000   0.0000   0.0000   0.2621
 -13.000  -0.5180   0.17819   0.17057   0.0016  1.0001  0.1225  -1.4216   0.0000   0.0000   0.0000   0.2457
 -12.000  -0.4778   0.16015   0.15260  -0.0015  1.0001  0.1389  -1.3099   0.0000   0.0000   0.0000   0.2399
 -11.000  -0.4519   0.14620   0.13877  -0.0054  1.0001  0.1559  -1.3312   0.0000   0.0000   0.0000   0.2315
 -10.000  -0.4303   0.13292   0.12559  -0.0093  1.0001  0.1732  -1.3734   0.0000   0.0000   0.0000   0.2224
  -9.000  -0.4251   0.12236   0.11527  -0.0143  1.0001  0.1916  -1.4639   0.0000   0.0000   0.0000   0.2110
  -8.000  -0.3799   0.10493   0.09797  -0.0136  1.0001  0.2160  -1.4228   0.0000   0.0000   0.0000   0.2089
  -7.000  -0.3676   0.09366   0.08699  -0.0134  1.0001  0.2553  -1.4444   0.0000   0.0000   0.0000   0.2091
  -6.000  -0.3816   0.08463   0.07837  -0.0105  1.0001  0.2946  -1.4997   0.0000   0.0000   0.0000   0.2188
  -5.000  -0.3606   0.05896   0.05239  -0.0444  1.0001  0.1581  -2.0577   0.0000   0.0000   0.0000   0.1237
  -4.000  -0.2550   0.03611   0.02751  -0.0613  1.0001  0.1389  -2.2913   0.0000   0.0000   0.0000   0.0051
  -3.000  -0.1418   0.02738   0.01791  -0.0637  1.0001  0.2209  -1.9596   0.0000   0.0000   0.0000  -0.2054
  -2.000  -0.0300   0.02303   0.01343  -0.0636  1.0001  0.3782  -1.4715   0.0000   0.0000   0.0000  -1.8921
  -1.000   0.0746   0.02025   0.01165  -0.0609  1.0001  0.6638  -0.9258   0.0000   0.0000   0.0000   1.0691
   0.000   0.1587   0.02014   0.01114  -0.0583  1.0001  0.9999  -0.5553   0.0000   0.0000   0.0000   0.6168
   1.000   0.2485   0.02314   0.01357  -0.0606  1.0001  0.9999  -0.5949   0.0000   0.0000   0.0000   0.4917
   2.000   0.4946   0.02631   0.01657  -0.0875  0.8951  0.9999  -0.8438   0.0000   0.0000   0.0000   0.4242
   3.000   0.6903   0.02400   0.01449  -0.0929  0.7710  0.9999  -1.1184   0.0000   0.0000   0.0000   0.3811
   4.000   0.8151   0.02306   0.01318  -0.0849  0.6194  0.9999  -1.3572   0.0000   0.0000   0.0000   0.3500
   5.000   0.9201   0.02600   0.01559  -0.0795  0.4948  0.9999  -1.6006   0.0000   0.0000   0.0000   0.3312
   6.000   1.0197   0.03071   0.02031  -0.0758  0.4099  0.9999  -1.9128   0.0000   0.0000   0.0000   0.3182
   7.000   1.1098   0.03713   0.02731  -0.0720  0.3466  0.9999  -2.4757   0.0000   0.0000   0.0000   0.3077
   8.000   1.1821   0.04580   0.03691  -0.0673  0.2953  0.9999  -3.0378   0.0000   0.0000   0.0000   0.2987
   9.000   1.2391   0.05579   0.04764  -0.0615  0.2491  0.9999  -3.5560   0.0000   0.0000   0.0000   0.2902
  10.000   1.1196   0.08232   0.07525  -0.0593  0.2374  0.9999  -3.1348   0.0000   0.0000   0.0000   0.2929
  13.000   0.9418   0.17684   0.16962  -0.1072  0.3014  0.9999  -1.9956   0.0000   0.0000   0.0000   0.3519
  14.000   0.9606   0.19269   0.18573  -0.1108  0.2687  0.9999  -2.0387   0.0000   0.0000   0.0000   0.3522
  15.000   0.9779   0.20858   0.20170  -0.1156  0.2320  0.9999  -1.9814   0.0000   0.0000   0.0000   0.3538
  16.000   0.9942   0.22214   0.21526  -0.1225  0.1954  0.9999  -1.9074   0.0000   0.0000   0.0000   0.3574
  17.000   1.0203   0.23685   0.22999  -0.1302  0.1706  0.9999  -1.8559   0.0000   0.0000   0.0000   0.3603
  18.000   1.0496   0.25204   0.24520  -0.1385  0.1549  0.9999  -1.8126   0.0000   0.0000   0.0000   0.3631
  19.000   1.0810   0.26672   0.25997  -0.1469  0.1389  0.9999  -1.8209   0.0000   0.0000   0.0000   0.3654
  20.000   1.1183   0.28500   0.27830  -0.1538  0.1296  0.9999  -1.8932   0.0000   0.0000   0.0000   0.3652
  21.000   1.1512   0.29826   0.29163  -0.1628  0.1163  0.9999  -1.9444   0.0000   0.0000   0.0000   0.3672
  22.000   1.1793   0.30988   0.30325  -0.1747  0.1077  0.9999  -1.9457   0.0000   0.0000   0.0000   0.3719
  23.000   1.2221   0.33695   0.33052  -0.1787  0.0978  0.9999  -2.1280   0.0000   0.0000   0.0000   0.3680
  24.000   1.2449   0.33708   0.33065  -0.1945  0.0897  0.9999  -2.0166   0.0000   0.0000   0.0000   0.3756
  25.000   1.2874   0.37163   0.36534  -0.1973  0.0818  0.9999  -2.2691   0.0000   0.0000   0.0000   0.3705
  26.000   1.3086   0.36331   0.35700  -0.2153  0.0748  0.9999  -2.1483   0.0000   0.0000   0.0000   0.3791
  27.000   1.3421   0.38201   0.37584  -0.2223  0.0673  0.9999  -2.2975   0.0000   0.0000   0.0000   0.3777
  28.000   1.3704   0.39232   0.38623  -0.2348  0.0650  0.9999  -2.2611   0.0000   0.0000   0.0000   0.3806
  29.000   1.3991   0.39855   0.39254  -0.2479  0.0572  0.9999  -2.2207   0.0000   0.0000   0.0000   0.3835
  30.000   1.4288   0.42530   0.41946  -0.2535  0.0516  0.9999  -2.3738   0.0000   0.0000   0.0000   0.3808


