xflr5 v6.61

 Calculated polar for: TJ1_7_77

 1 1 Reynolds number fixed          Mach number fixed         

 xtrf =   1.000 (top)        1.000 (bottom)
 Mach =   0.200     Re =     0.075 e 6     Ncrit =   9.000

  alpha     CL        CD       CDp       Cm    Top Xtr Bot Xtr   Cpmin    Chinge    XCp    
 ------- -------- --------- --------- -------- ------- ------- -------- --------- ---------
 -30.000  -1.0899   0.38014   0.37420   0.1596  1.0001  0.0202  -1.8569   0.0000   0.0000   0.0000   0.3689
 -29.000  -1.0602   0.36950   0.36349   0.1487  1.0001  0.0219  -1.8232   0.0000   0.0000   0.0000   0.3649
 -28.000  -1.0287   0.35874   0.35267   0.1377  1.0001  0.0244  -1.7973   0.0000   0.0000   0.0000   0.3606
 -27.000  -0.9951   0.35277   0.34661   0.1253  1.0001  0.0261  -1.8193   0.0000   0.0000   0.0000   0.3546
 -26.000  -0.9648   0.35444   0.34828   0.1119  1.0001  0.0266  -1.8527   0.0000   0.0000   0.0000   0.3467
 -25.000  -0.9298   0.33000   0.32382   0.1037  1.0001  0.0273  -1.8049   0.0000   0.0000   0.0000   0.3437
 -24.000  -0.8947   0.31109   0.30480   0.0965  1.0001  0.0295  -1.6594   0.0000   0.0000   0.0000   0.3415
 -23.000  -0.8593   0.29847   0.29215   0.0874  1.0001  0.0322  -1.5865   0.0000   0.0000   0.0000   0.3367
 -22.000  -0.8229   0.28639   0.28004   0.0778  1.0001  0.0364  -1.5356   0.0000   0.0000   0.0000   0.3309
 -21.000  -0.7887   0.28131   0.27496   0.0658  1.0001  0.0392  -1.6048   0.0000   0.0000   0.0000   0.3211
 -20.000  -0.7641   0.28162   0.27533   0.0538  1.0001  0.0397  -1.7415   0.0000   0.0000   0.0000   0.3095
 -19.000  -0.7145   0.24775   0.24136   0.0509  1.0001  0.0429  -1.5339   0.0000   0.0000   0.0000   0.3110
 -18.000  -0.6775   0.23426   0.22786   0.0436  1.0001  0.0473  -1.4605   0.0000   0.0000   0.0000   0.3050
 -17.000  -0.6424   0.22223   0.21585   0.0351  1.0001  0.0527  -1.4393   0.0000   0.0000   0.0000   0.2962
 -16.000  -0.6267   0.22119   0.21490   0.0234  1.0001  0.0550  -1.5682   0.0000   0.0000   0.0000   0.2798
 -15.000  -0.5750   0.19454   0.18819   0.0216  1.0001  0.0614  -1.3648   0.0000   0.0000   0.0000   0.2804
 -14.000  -0.5460   0.18265   0.17635   0.0144  1.0001  0.0694  -1.4133   0.0000   0.0000   0.0000   0.2698
 -13.000  -0.5494   0.18062   0.17446   0.0026  1.0001  0.0716  -1.6591   0.0000   0.0000   0.0000   0.2492
 -12.000  -0.4884   0.15441   0.14823   0.0040  1.0001  0.0810  -1.4064   0.0000   0.0000   0.0000   0.2525
 -11.000  -0.4911   0.14845   0.14243  -0.0069  1.0001  0.0882  -1.5909   0.0000   0.0000   0.0000   0.2312
 -10.000  -0.4414   0.12789   0.12186  -0.0061  1.0001  0.0979  -1.3728   0.0000   0.0000   0.0000   0.2313
  -9.000  -0.4371   0.11680   0.11099  -0.0149  1.0001  0.1069  -1.4686   0.0000   0.0000   0.0000   0.2118
  -8.000  -0.4245   0.10586   0.10025  -0.0208  1.0001  0.1220  -1.4590   0.0000   0.0000   0.0000   0.1974
  -7.000  -0.4021   0.09188   0.08649  -0.0218  1.0001  0.1381  -1.4502   0.0000   0.0000   0.0000   0.1927
  -6.000  -0.3907   0.07928   0.07414  -0.0241  1.0001  0.1604  -1.4832   0.0000   0.0000   0.0000   0.1860
  -5.000  -0.3690   0.06709   0.06210  -0.0284  1.0001  0.1947  -1.5190   0.0000   0.0000   0.0000   0.1711
  -4.000  -0.2455   0.03595   0.02907  -0.0613  1.0001  0.0844  -2.2329   0.0000   0.0000   0.0000  -0.0029
  -3.000  -0.1165   0.02351   0.01457  -0.0672  1.0001  0.0955  -2.1744   0.0000   0.0000   0.0000  -0.3332
  -2.000   0.0083   0.01816   0.00933  -0.0691  1.0001  0.2698  -1.7119   0.0000   0.0000   0.0000   8.5883
  -1.000   0.0966   0.01473   0.00821  -0.0622  1.0001  0.9448  -1.1465   0.0000   0.0000   0.0000   0.8963
   0.000   0.2029   0.01611   0.00838  -0.0642  1.0001  0.9999  -0.5709   0.0000   0.0000   0.0000   0.5657
   1.000   0.3486   0.01840   0.01020  -0.0744  0.9778  0.9999  -0.6136   0.0000   0.0000   0.0000   0.4618
   2.000   0.5629   0.01874   0.01058  -0.0920  0.8939  0.9999  -0.8606   0.0000   0.0000   0.0000   0.4110
   3.000   0.7108   0.01662   0.00866  -0.0904  0.7857  0.9999  -1.1112   0.0000   0.0000   0.0000   0.3741
   4.000   0.8177   0.01668   0.00807  -0.0821  0.5944  0.9999  -1.3648   0.0000   0.0000   0.0000   0.3465
   5.000   0.9164   0.01971   0.01029  -0.0772  0.4335  0.9999  -1.7377   0.0000   0.0000   0.0000   0.3293
   6.000   1.0175   0.02349   0.01380  -0.0739  0.3353  0.9999  -2.4847   0.0000   0.0000   0.0000   0.3167
   7.000   1.1146   0.02796   0.01860  -0.0704  0.2578  0.9999  -3.2649   0.0000   0.0000   0.0000   0.3061
   8.000   1.2021   0.03290   0.02405  -0.0656  0.1857  0.9999  -4.0683   0.0000   0.0000   0.0000   0.2963
   9.000   1.2575   0.03760   0.02886  -0.0576  0.0974  0.9999  -4.7306   0.0000   0.0000   0.0000   0.2861
  10.000   1.2907   0.05000   0.04240  -0.0488  0.0647  0.9999  -4.9481   0.0000   0.0000   0.0000   0.2769
  11.000   1.2418   0.06670   0.06070  -0.0392  0.0619  0.9999  -4.7788   0.0000   0.0000   0.0000   0.2696
  12.000   1.1383   0.09341   0.08816  -0.0493  0.0640  0.9999  -4.3185   0.0000   0.0000   0.0000   0.2802
  13.000   0.7986   0.12611   0.12120  -0.0534  0.0985  0.9999  -2.5355   0.0000   0.0000   0.0000   0.3056
  14.000   0.9978   0.18005   0.17470  -0.0982  0.0994  0.9999  -2.3895   0.0000   0.0000   0.0000   0.3353
  15.000   0.7326   0.17396   0.16891  -0.0750  0.1469  0.9999  -1.4831   0.0000   0.0000   0.0000   0.3413
  16.000   0.7382   0.18675   0.18173  -0.0791  0.1302  0.9999  -1.3966   0.0000   0.0000   0.0000   0.3451
  18.000   1.0798   0.25853   0.25311  -0.1371  0.0973  0.9999  -2.0014   0.0000   0.0000   0.0000   0.3590
  19.000   1.1041   0.26905   0.26369  -0.1486  0.0845  0.9999  -2.0173   0.0000   0.0000   0.0000   0.3650
  20.000   1.1347   0.28532   0.27996  -0.1584  0.0800  0.9999  -2.0399   0.0000   0.0000   0.0000   0.3683
  21.000   1.1667   0.29831   0.29299  -0.1687  0.0698  0.9999  -2.0635   0.0000   0.0000   0.0000   0.3714
  22.000   1.2014   0.31733   0.31204  -0.1762  0.0653  0.9999  -2.1163   0.0000   0.0000   0.0000   0.3716
  23.000   1.2315   0.32663   0.32137  -0.1895  0.0565  0.9999  -2.0558   0.0000   0.0000   0.0000   0.3767
  24.000   1.2741   0.36215   0.35706  -0.1908  0.0511  0.9999  -2.3841   0.0000   0.0000   0.0000   0.3706
  25.000   1.2961   0.35539   0.35025  -0.2096  0.0489  0.9999  -2.1819   0.0000   0.0000   0.0000   0.3802
  26.000   1.3279   0.36719   0.36212  -0.2209  0.0416  0.9999  -2.2086   0.0000   0.0000   0.0000   0.3823
  27.000   1.3627   0.40182   0.39691  -0.2234  0.0373  0.9999  -2.4761   0.0000   0.0000   0.0000   0.3776
  28.000   1.3882   0.40081   0.39590  -0.2390  0.0366  0.9999  -2.3101   0.0000   0.0000   0.0000   0.3830
  29.000   1.4181   0.40312   0.39826  -0.2542  0.0333  0.9999  -2.1572   0.0000   0.0000   0.0000   0.3873
  30.000   1.4457   0.41390   0.40912  -0.2653  0.0288  0.9999  -2.1578   0.0000   0.0000   0.0000   0.3885


