xflr5 v6.61

 Calculated polar for: TJ1_9_00

 1 1 Reynolds number fixed          Mach number fixed         

 xtrf =   1.000 (top)        1.000 (bottom)
 Mach =   0.200     Re =     0.075 e 6     Ncrit =   9.000

  alpha     CL        CD       CDp       Cm    Top Xtr Bot Xtr   Cpmin    Chinge    XCp    
 ------- -------- --------- --------- -------- ------- ------- -------- --------- ---------
 -11.000  -0.4393   0.13950   0.13335  -0.0055  1.0001  0.0997  -1.3131   0.0000   0.0000   0.0000   0.2306
 -10.000  -0.4266   0.12679   0.12076  -0.0121  1.0001  0.1081  -1.4220   0.0000   0.0000   0.0000   0.2152
  -9.000  -0.4322   0.11857   0.11277  -0.0219  1.0001  0.1225  -1.5883   0.0000   0.0000   0.0000   0.1941
  -8.000  -0.4004   0.10217   0.09655  -0.0222  1.0001  0.1413  -1.5611   0.0000   0.0000   0.0000   0.1896
  -6.000  -0.3954   0.07834   0.07330  -0.0251  1.0001  0.1766  -1.6847   0.0000   0.0000   0.0000   0.1832
  -5.000  -0.3499   0.04516   0.03907  -0.0554  1.0001  0.0861  -2.5120   0.0000   0.0000   0.0000   0.0875
  -4.000  -0.2429   0.02873   0.02075  -0.0641  1.0001  0.0963  -2.5074   0.0000   0.0000   0.0000  -0.0192
  -3.000  -0.1230   0.02214   0.01308  -0.0663  1.0001  0.1729  -2.0732   0.0000   0.0000   0.0000  -0.2963
  -2.000  -0.0100   0.01948   0.01058  -0.0670  1.0001  0.3143  -1.4944   0.0000   0.0000   0.0000  -6.5126
  -1.000   0.0996   0.01793   0.01005  -0.0673  1.0001  0.5508  -0.9015   0.0000   0.0000   0.0000   0.9284
   0.000   0.1821   0.01794   0.01063  -0.0635  0.9960  0.9999  -0.5318   0.0000   0.0000   0.0000   0.5976
   1.000   0.4176   0.01942   0.01151  -0.0870  0.9246  0.9999  -0.7350   0.0000   0.0000   0.0000   0.4564
   2.000   0.5917   0.01806   0.01011  -0.0930  0.8393  0.9999  -0.9593   0.0000   0.0000   0.0000   0.4044
   3.000   0.7152   0.01642   0.00826  -0.0870  0.7109  0.9999  -1.1767   0.0000   0.0000   0.0000   0.3681
   4.000   0.8192   0.01780   0.00868  -0.0807  0.5392  0.9999  -1.3960   0.0000   0.0000   0.0000   0.3440
   5.000   0.9219   0.02081   0.01097  -0.0771  0.4231  0.9999  -1.6473   0.0000   0.0000   0.0000   0.3282
   6.000   1.0244   0.02437   0.01451  -0.0744  0.3464  0.9999  -1.9942   0.0000   0.0000   0.0000   0.3162
   7.000   1.1247   0.02863   0.01895  -0.0716  0.2893  0.9999  -2.6837   0.0000   0.0000   0.0000   0.3061
   8.000   1.2163   0.03396   0.02495  -0.0679  0.2403  0.9999  -3.3940   0.0000   0.0000   0.0000   0.2971
   9.000   1.2952   0.04025   0.03192  -0.0629  0.1952  0.9999  -4.0785   0.0000   0.0000   0.0000   0.2885
  10.000   1.3576   0.04548   0.03774  -0.0561  0.1463  0.9999  -4.7343   0.0000   0.0000   0.0000   0.2797
  11.000   1.3794   0.05067   0.04328  -0.0460  0.0975  0.9999  -5.2501   0.0000   0.0000   0.0000   0.2701
  12.000   1.0840   0.11213   0.10670  -0.0656  0.1494  0.9999  -3.3952   0.0000   0.0000   0.0000   0.2976
  14.000   1.0001   0.17217   0.16664  -0.0947  0.1326  0.9999  -2.5606   0.0000   0.0000   0.0000   0.3305
  15.000   1.0074   0.20267   0.19716  -0.1060  0.1474  0.9999  -2.2131   0.0000   0.0000   0.0000   0.3403
  16.000   1.0104   0.21757   0.21202  -0.1173  0.1329  0.9999  -2.0337   0.0000   0.0000   0.0000   0.3499
  17.000   1.0300   0.23298   0.22740  -0.1271  0.1176  0.9999  -1.9451   0.0000   0.0000   0.0000   0.3558
  18.000   1.0550   0.24932   0.24372  -0.1371  0.1106  0.9999  -1.8569   0.0000   0.0000   0.0000   0.3608
  19.000   1.0956   0.26692   0.26148  -0.1420  0.0992  0.9999  -1.9999   0.0000   0.0000   0.0000   0.3588
  20.000   1.1164   0.27917   0.27368  -0.1559  0.0926  0.9999  -1.8868   0.0000   0.0000   0.0000   0.3671


