xflr5 v6.61

 Calculated polar for: TJ1_8_00

 1 1 Reynolds number fixed          Mach number fixed         

 xtrf =   1.000 (top)        1.000 (bottom)
 Mach =   0.200     Re =     0.060 e 6     Ncrit =   9.000

  alpha     CL        CD       CDp       Cm    Top Xtr Bot Xtr   Cpmin    Chinge    XCp    
 ------- -------- --------- --------- -------- ------- ------- -------- --------- ---------
 -29.000  -1.0524   0.37152   0.36481   0.1447  1.0001  0.0279  -1.8955   0.0000   0.0000   0.0000   0.3618
 -28.000  -1.0222   0.35751   0.35072   0.1353  1.0001  0.0299  -1.7868   0.0000   0.0000   0.0000   0.3588
 -27.000  -0.9902   0.34597   0.33907   0.1251  1.0001  0.0324  -1.7092   0.0000   0.0000   0.0000   0.3547
 -26.000  -0.9568   0.33456   0.32760   0.1147  1.0001  0.0353  -1.6533   0.0000   0.0000   0.0000   0.3500
 -25.000  -0.9220   0.32497   0.31797   0.1036  1.0001  0.0382  -1.6698   0.0000   0.0000   0.0000   0.3442
 -24.000  -0.8917   0.32844   0.32146   0.0900  1.0001  0.0395  -1.7593   0.0000   0.0000   0.0000   0.3346
 -23.000  -0.8532   0.30082   0.29376   0.0834  1.0001  0.0414  -1.6403   0.0000   0.0000   0.0000   0.3326
 -22.000  -0.8164   0.28564   0.27854   0.0757  1.0001  0.0451  -1.5137   0.0000   0.0000   0.0000   0.3288
 -21.000  -0.7798   0.27317   0.26604   0.0668  1.0001  0.0497  -1.4991   0.0000   0.0000   0.0000   0.3230
 -20.000  -0.7449   0.26470   0.25758   0.0563  1.0001  0.0541  -1.5473   0.0000   0.0000   0.0000   0.3141
 -19.000  -0.7238   0.26719   0.26008   0.0440  1.0001  0.0551  -1.6705   0.0000   0.0000   0.0000   0.3007
 -18.000  -0.6714   0.23469   0.22754   0.0414  1.0001  0.0599  -1.4438   0.0000   0.0000   0.0000   0.3019
 -17.000  -0.6360   0.22252   0.21539   0.0336  1.0001  0.0686  -1.3860   0.0000   0.0000   0.0000   0.2941
 -16.000  -0.6266   0.22453   0.21751   0.0217  1.0001  0.0716  -1.5333   0.0000   0.0000   0.0000   0.2770
 -15.000  -0.5683   0.19525   0.18815   0.0202  1.0001  0.0792  -1.3620   0.0000   0.0000   0.0000   0.2781
 -14.000  -0.5483   0.18732   0.18030   0.0116  1.0001  0.0876  -1.4539   0.0000   0.0000   0.0000   0.2644
 -13.000  -0.5100   0.16904   0.16207   0.0079  1.0001  0.0936  -1.3842   0.0000   0.0000   0.0000   0.2592
 -12.000  -0.4954   0.16004   0.15317   0.0006  1.0001  0.1045  -1.4367   0.0000   0.0000   0.0000   0.2457
 -11.000  -0.4579   0.14257   0.13573  -0.0018  1.0001  0.1134  -1.3287   0.0000   0.0000   0.0000   0.2406
 -10.000  -0.4501   0.13193   0.12527  -0.0090  1.0001  0.1241  -1.3855   0.0000   0.0000   0.0000   0.2251
  -9.000  -0.4424   0.12218   0.11572  -0.0156  1.0001  0.1396  -1.4089   0.0000   0.0000   0.0000   0.2107
  -8.000  -0.3979   0.10457   0.09822  -0.0144  1.0001  0.1626  -1.3329   0.0000   0.0000   0.0000   0.2099
  -7.000  -0.3883   0.09357   0.08752  -0.0164  1.0001  0.1881  -1.3819   0.0000   0.0000   0.0000   0.2043
  -6.000  -0.3870   0.08234   0.07662  -0.0180  1.0001  0.2126  -1.4500   0.0000   0.0000   0.0000   0.2008
  -5.000  -0.3724   0.07066   0.06518  -0.0186  1.0001  0.2483  -1.4848   0.0000   0.0000   0.0000   0.1979
  -4.000  -0.2469   0.03805   0.03052  -0.0611  1.0001  0.1035  -2.2318   0.0000   0.0000   0.0000  -0.0010
  -3.000  -0.1192   0.02543   0.01582  -0.0671  1.0001  0.1221  -2.1627   0.0000   0.0000   0.0000  -0.3186
  -2.000  -0.0014   0.02031   0.01094  -0.0680  1.0001  0.3123  -1.6618   0.0000   0.0000   0.0000  -47.7123
  -1.000   0.0902   0.01647   0.00927  -0.0609  1.0001  0.8484  -1.1104   0.0000   0.0000   0.0000   0.9271
   0.000   0.1923   0.01766   0.00911  -0.0625  1.0001  0.9999  -0.5735   0.0000   0.0000   0.0000   0.5742
   1.000   0.2857   0.02013   0.01109  -0.0640  1.0001  0.9999  -0.5811   0.0000   0.0000   0.0000   0.4721
   2.000   0.5186   0.02239   0.01328  -0.0882  0.9116  0.9999  -0.8284   0.0000   0.0000   0.0000   0.4176
   3.000   0.7001   0.02028   0.01152  -0.0926  0.7936  0.9999  -1.0968   0.0000   0.0000   0.0000   0.3791
   4.000   0.8192   0.01934   0.01014  -0.0840  0.6193  0.9999  -1.3461   0.0000   0.0000   0.0000   0.3486
   5.000   0.9204   0.02239   0.01249  -0.0785  0.4673  0.9999  -1.6560   0.0000   0.0000   0.0000   0.3304
   6.000   1.0224   0.02660   0.01649  -0.0749  0.3717  0.9999  -2.3074   0.0000   0.0000   0.0000   0.3174
   7.000   1.1184   0.03207   0.02243  -0.0713  0.2988  0.9999  -3.0342   0.0000   0.0000   0.0000   0.3068
   8.000   1.2040   0.03839   0.02941  -0.0664  0.2312  0.9999  -3.7461   0.0000   0.0000   0.0000   0.2970
   9.000   1.2678   0.04590   0.03774  -0.0592  0.1624  0.9999  -4.3706   0.0000   0.0000   0.0000   0.2872
  10.000   1.2956   0.05378   0.04600  -0.0495  0.0971  0.9999  -4.7393   0.0000   0.0000   0.0000   0.2773
  11.000   1.2160   0.07313   0.06697  -0.0411  0.0922  0.9999  -4.4186   0.0000   0.0000   0.0000   0.2720
  12.000   1.1060   0.10442   0.09872  -0.0555  0.0975  0.9999  -3.8744   0.0000   0.0000   0.0000   0.2874
  13.000   1.0062   0.15325   0.14729  -0.0852  0.1133  0.9999  -2.8017   0.0000   0.0000   0.0000   0.3221
  14.000   0.9821   0.19244   0.18637  -0.1071  0.1807  0.9999  -2.0717   0.0000   0.0000   0.0000   0.3464
  15.000   1.0028   0.21128   0.20521  -0.1135  0.1640  0.9999  -1.9911   0.0000   0.0000   0.0000   0.3494
  16.000   1.0184   0.22596   0.21986  -0.1220  0.1466  0.9999  -1.9042   0.0000   0.0000   0.0000   0.3547
  17.000   1.0643   0.24956   0.24354  -0.1257  0.1310  0.9999  -2.0346   0.0000   0.0000   0.0000   0.3516
  18.000   1.0671   0.25416   0.24805  -0.1410  0.1197  0.9999  -1.8715   0.0000   0.0000   0.0000   0.3640
  19.000   1.0995   0.27058   0.26454  -0.1492  0.1118  0.9999  -1.8918   0.0000   0.0000   0.0000   0.3660
  20.000   1.1470   0.29725   0.29133  -0.1521  0.0979  0.9999  -2.1315   0.0000   0.0000   0.0000   0.3612
  21.000   1.1627   0.29826   0.29228  -0.1688  0.0894  0.9999  -1.9867   0.0000   0.0000   0.0000   0.3719
  22.000   1.2080   0.32810   0.32224  -0.1714  0.0817  0.9999  -2.1879   0.0000   0.0000   0.0000   0.3667
  23.000   1.2286   0.32659   0.32069  -0.1886  0.0744  0.9999  -2.0102   0.0000   0.0000   0.0000   0.3762


