xflr5 v6.61

 Calculated polar for: TJ1_8_00

 1 1 Reynolds number fixed          Mach number fixed         

 xtrf =   1.000 (top)        1.000 (bottom)
 Mach =   0.200     Re =     0.075 e 6     Ncrit =   9.000

  alpha     CL        CD       CDp       Cm    Top Xtr Bot Xtr   Cpmin    Chinge    XCp    
 ------- -------- --------- --------- -------- ------- ------- -------- --------- ---------
 -25.000  -0.9236   0.32349   0.31726   0.1044  1.0001  0.0284  -1.7227   0.0000   0.0000   0.0000   0.3448
 -24.000  -0.8890   0.31020   0.30387   0.0955  1.0001  0.0307  -1.6324   0.0000   0.0000   0.0000   0.3407
 -23.000  -0.8534   0.29790   0.29154   0.0861  1.0001  0.0340  -1.5711   0.0000   0.0000   0.0000   0.3356
 -22.000  -0.8167   0.28750   0.28112   0.0756  1.0001  0.0382  -1.5509   0.0000   0.0000   0.0000   0.3287
 -21.000  -0.7869   0.28711   0.28075   0.0629  1.0001  0.0395  -1.6757   0.0000   0.0000   0.0000   0.3175
 -20.000  -0.7478   0.26473   0.25839   0.0558  1.0001  0.0407  -1.6452   0.0000   0.0000   0.0000   0.3131
 -19.000  -0.7080   0.24684   0.24042   0.0502  1.0001  0.0445  -1.5006   0.0000   0.0000   0.0000   0.3103
 -18.000  -0.6713   0.23386   0.22744   0.0424  1.0001  0.0492  -1.4432   0.0000   0.0000   0.0000   0.3035
 -17.000  -0.6391   0.22476   0.21836   0.0325  1.0001  0.0541  -1.4672   0.0000   0.0000   0.0000   0.2921
 -16.000  -0.6080   0.21054   0.20422   0.0248  1.0001  0.0566  -1.4597   0.0000   0.0000   0.0000   0.2827
 -15.000  -0.5684   0.19412   0.18775   0.0207  1.0001  0.0636  -1.3697   0.0000   0.0000   0.0000   0.2789
 -14.000  -0.5465   0.18548   0.17918   0.0117  1.0001  0.0707  -1.4789   0.0000   0.0000   0.0000   0.2647
 -13.000  -0.5144   0.16848   0.16225   0.0068  1.0001  0.0741  -1.4646   0.0000   0.0000   0.0000   0.2569
 -12.000  -0.4822   0.15436   0.14816   0.0029  1.0001  0.0832  -1.3883   0.0000   0.0000   0.0000   0.2500
 -11.000  -0.4927   0.15013   0.14412  -0.0094  1.0001  0.0884  -1.6158   0.0000   0.0000   0.0000   0.2259
 -10.000  -0.4354   0.12790   0.12185  -0.0072  1.0001  0.1000  -1.3365   0.0000   0.0000   0.0000   0.2285
  -9.000  -0.4206   0.11509   0.10922  -0.0134  1.0001  0.1087  -1.3547   0.0000   0.0000   0.0000   0.2137
  -8.000  -0.4285   0.10715   0.10158  -0.0234  1.0001  0.1224  -1.5192   0.0000   0.0000   0.0000   0.1918
  -7.000  -0.4065   0.09304   0.08769  -0.0261  1.0001  0.1392  -1.5237   0.0000   0.0000   0.0000   0.1828
  -6.000  -0.3853   0.07948   0.07435  -0.0219  1.0001  0.1624  -1.4800   0.0000   0.0000   0.0000   0.1905
  -5.000  -0.3680   0.06715   0.06217  -0.0291  1.0001  0.1942  -1.5570   0.0000   0.0000   0.0000   0.1688
  -4.000  -0.2439   0.03477   0.02780  -0.0619  1.0001  0.0827  -2.3072   0.0000   0.0000   0.0000  -0.0074
  -3.000  -0.1144   0.02307   0.01403  -0.0674  1.0001  0.1012  -2.2216   0.0000   0.0000   0.0000  -0.3459
  -2.000   0.0077   0.01847   0.00959  -0.0691  1.0001  0.2805  -1.6812   0.0000   0.0000   0.0000   9.2314
  -1.000   0.1135   0.01555   0.00865  -0.0666  1.0001  0.7513  -1.0603   0.0000   0.0000   0.0000   0.8385
   0.000   0.2005   0.01645   0.00882  -0.0643  1.0001  0.9999  -0.5611   0.0000   0.0000   0.0000   0.5698
   1.000   0.3692   0.01870   0.01057  -0.0784  0.9643  0.9999  -0.6471   0.0000   0.0000   0.0000   0.4606
   2.000   0.5737   0.01856   0.01046  -0.0929  0.8792  0.9999  -0.8895   0.0000   0.0000   0.0000   0.4095
   3.000   0.7144   0.01644   0.00845  -0.0898  0.7650  0.9999  -1.1267   0.0000   0.0000   0.0000   0.3725
   4.000   0.8202   0.01697   0.00817  -0.0820  0.5740  0.9999  -1.3622   0.0000   0.0000   0.0000   0.3460
   5.000   0.9202   0.02003   0.01046  -0.0776  0.4280  0.9999  -1.6821   0.0000   0.0000   0.0000   0.3293
   6.000   1.0224   0.02376   0.01402  -0.0746  0.3391  0.9999  -2.3628   0.0000   0.0000   0.0000   0.3169
   7.000   1.1214   0.02818   0.01868  -0.0714  0.2701  0.9999  -3.1341   0.0000   0.0000   0.0000   0.3065
   8.000   1.2102   0.03344   0.02466  -0.0669  0.2062  0.9999  -3.8829   0.0000   0.0000   0.0000   0.2970
   9.000   1.2747   0.03649   0.02798  -0.0598  0.1274  0.9999  -4.6838   0.0000   0.0000   0.0000   0.2871
  10.000   1.3058   0.04610   0.03842  -0.0500  0.0723  0.9999  -4.9717   0.0000   0.0000   0.0000   0.2771
  11.000   1.2862   0.06103   0.05454  -0.0402  0.0632  0.9999  -4.9887   0.0000   0.0000   0.0000   0.2689
  12.000   1.1938   0.08316   0.07772  -0.0424  0.0638  0.9999  -4.6446   0.0000   0.0000   0.0000   0.2719
  14.000   1.0103   0.17005   0.16468  -0.0928  0.0812  0.9999  -2.7247   0.0000   0.0000   0.0000   0.3279
  15.000   0.7509   0.17559   0.17055  -0.0732  0.1476  0.9999  -1.5834   0.0000   0.0000   0.0000   0.3360
  16.000   0.7290   0.18341   0.17837  -0.0798  0.1334  0.9999  -1.3795   0.0000   0.0000   0.0000   0.3472
  17.000   0.7341   0.19564   0.19068  -0.0847  0.1182  0.9999  -1.2846   0.0000   0.0000   0.0000   0.3522
  18.000   0.7431   0.20914   0.20421  -0.0897  0.1108  0.9999  -1.2233   0.0000   0.0000   0.0000   0.3564


