xflr5 v6.61

 Calculated polar for: TJ1_7_00

 1 1 Reynolds number fixed          Mach number fixed         

 xtrf =   1.000 (top)        1.000 (bottom)
 Mach =   0.200     Re =     0.090 e 6     Ncrit =   9.000

  alpha     CL        CD       CDp       Cm    Top Xtr Bot Xtr   Cpmin    Chinge    XCp    
 ------- -------- --------- --------- -------- ------- ------- -------- --------- ---------
 -30.000  -1.0999   0.38243   0.37704   0.1628  1.0001  0.0157  -1.8305   0.0000   0.0000   0.0000   0.3721
 -29.000  -1.0685   0.37389   0.36844   0.1509  1.0001  0.0167  -1.8821   0.0000   0.0000   0.0000   0.3675
 -28.000  -1.0374   0.37206   0.36658   0.1376  1.0001  0.0171  -1.9647   0.0000   0.0000   0.0000   0.3611
 -27.000  -1.0064   0.35851   0.35299   0.1270  1.0001  0.0175  -1.9621   0.0000   0.0000   0.0000   0.3564
 -26.000  -0.9750   0.33688   0.33130   0.1200  1.0001  0.0191  -1.7530   0.0000   0.0000   0.0000   0.3549
 -25.000  -0.9415   0.32475   0.31913   0.1101  1.0001  0.0209  -1.6565   0.0000   0.0000   0.0000   0.3505
 -24.000  -0.9067   0.31255   0.30684   0.1002  1.0001  0.0228  -1.6220   0.0000   0.0000   0.0000   0.3456
 -23.000  -0.8705   0.30073   0.29498   0.0902  1.0001  0.0250  -1.6260   0.0000   0.0000   0.0000   0.3400
 -22.000  -0.8351   0.29477   0.28902   0.0782  1.0001  0.0263  -1.6859   0.0000   0.0000   0.0000   0.3315
 -21.000  -0.8060   0.29239   0.28667   0.0664  1.0001  0.0267  -1.7454   0.0000   0.0000   0.0000   0.3215
 -20.000  -0.7629   0.26175   0.25600   0.0627  1.0001  0.0291  -1.5103   0.0000   0.0000   0.0000   0.3221
 -19.000  -0.7265   0.24846   0.24265   0.0549  1.0001  0.0327  -1.4724   0.0000   0.0000   0.0000   0.3164
 -18.000  -0.6900   0.23564   0.22983   0.0465  1.0001  0.0365  -1.4869   0.0000   0.0000   0.0000   0.3091
 -17.000  -0.6594   0.22896   0.22319   0.0356  1.0001  0.0392  -1.5965   0.0000   0.0000   0.0000   0.2967
 -16.000  -0.6424   0.22508   0.21938   0.0253  1.0001  0.0397  -1.7185   0.0000   0.0000   0.0000   0.2831
 -15.000  -0.5879   0.19511   0.18934   0.0243  1.0001  0.0439  -1.4271   0.0000   0.0000   0.0000   0.2852
 -14.000  -0.5558   0.18172   0.17597   0.0182  1.0001  0.0494  -1.3470   0.0000   0.0000   0.0000   0.2772
 -13.000  -0.5414   0.17515   0.16949   0.0082  1.0001  0.0547  -1.5074   0.0000   0.0000   0.0000   0.2603
 -12.000  -0.5019   0.15467   0.14906   0.0062  1.0001  0.0598  -1.4258   0.0000   0.0000   0.0000   0.2576
 -11.000  -0.4771   0.14183   0.13625   0.0007  1.0001  0.0684  -1.4557   0.0000   0.0000   0.0000   0.2472
 -10.000  -0.4825   0.13640   0.13101  -0.0126  1.0001  0.0716  -1.7370   0.0000   0.0000   0.0000   0.2205
  -9.000  -0.4307   0.11476   0.10938  -0.0091  1.0001  0.0822  -1.4641   0.0000   0.0000   0.0000   0.2253
  -7.000  -0.4037   0.09123   0.08628  -0.0219  1.0001  0.1036  -1.5031   0.0000   0.0000   0.0000   0.1933
  -6.000  -0.3839   0.07818   0.07343  -0.0241  1.0001  0.1150  -1.4116   0.0000   0.0000   0.0000   0.1853
  -4.000  -0.2849   0.05082   0.04590  -0.0454  1.0001  0.1766  -1.4480   0.0000   0.0000   0.0000   0.0892
  -3.000  -0.1110   0.02470   0.01666  -0.0676  1.0001  0.0679  -2.1238   0.0000   0.0000   0.0000  -0.3644
  -2.000   0.0207   0.01771   0.00861  -0.0700  1.0001  0.1053  -1.9135   0.0000   0.0000   0.0000   3.6549
  -1.000   0.1222   0.01310   0.00697  -0.0667  1.0001  0.9999  -1.2773   0.0000   0.0000   0.0000   0.7972
   0.000   0.2294   0.01433   0.00713  -0.0678  1.0001  0.9999  -0.6151   0.0000   0.0000   0.0000   0.5450
   1.000   0.3859   0.01614   0.00850  -0.0792  0.9759  0.9999  -0.6154   0.0000   0.0000   0.0000   0.4536
   2.000   0.5829   0.01607   0.00851  -0.0934  0.9001  0.9999  -0.8551   0.0000   0.0000   0.0000   0.4080
   3.000   0.7181   0.01437   0.00702  -0.0906  0.7925  0.9999  -1.0978   0.0000   0.0000   0.0000   0.3733
   4.000   0.8218   0.01478   0.00669  -0.0827  0.5808  0.9999  -1.3833   0.0000   0.0000   0.0000   0.3469
   5.000   0.9180   0.01788   0.00888  -0.0778  0.4026  0.9999  -2.0212   0.0000   0.0000   0.0000   0.3301
   6.000   1.0182   0.02148   0.01227  -0.0746  0.3008  0.9999  -2.8346   0.0000   0.0000   0.0000   0.3176
   7.000   1.1115   0.02499   0.01604  -0.0707  0.2103  0.9999  -3.7340   0.0000   0.0000   0.0000   0.3067
   8.000   1.1778   0.02921   0.02029  -0.0639  0.0814  0.9999  -4.4614   0.0000   0.0000   0.0000   0.2961
   9.000   1.2433   0.04136   0.03307  -0.0567  0.0512  0.9999  -4.7724   0.0000   0.0000   0.0000   0.2863
  10.000   1.2569   0.05700   0.05064  -0.0476  0.0491  0.9999  -4.9081   0.0000   0.0000   0.0000   0.2775
  11.000   1.1859   0.07493   0.06970  -0.0417  0.0498  0.9999  -4.6918   0.0000   0.0000   0.0000   0.2737
  13.000   1.0014   0.15562   0.15084  -0.0908  0.0634  0.9999  -2.7267   0.0000   0.0000   0.0000   0.3287
  14.000   0.7499   0.15263   0.14806  -0.0686  0.0798  0.9999  -1.8300   0.0000   0.0000   0.0000   0.3307
  15.000   0.7558   0.17626   0.17175  -0.0754  0.1139  0.9999  -1.5163   0.0000   0.0000   0.0000   0.3387
  16.000   0.7365   0.18499   0.18046  -0.0831  0.1030  0.9999  -1.3388   0.0000   0.0000   0.0000   0.3510
  17.000   0.7551   0.20058   0.19614  -0.0864  0.0969  0.9999  -1.3687   0.0000   0.0000   0.0000   0.3515
  18.000   0.7927   0.22118   0.21682  -0.0878  0.0819  0.9999  -1.5314   0.0000   0.0000   0.0000   0.3465
  19.000   0.7680   0.22480   0.22042  -0.0975  0.0769  0.9999  -1.2710   0.0000   0.0000   0.0000   0.3618
  20.000   0.7904   0.23993   0.23564  -0.1002  0.0674  0.9999  -1.3945   0.0000   0.0000   0.0000   0.3602
  21.000   0.7951   0.25325   0.24897  -0.1066  0.0643  0.9999  -1.2846   0.0000   0.0000   0.0000   0.3661
  22.000   0.8077   0.26639   0.26223  -0.1114  0.0539  0.9999  -1.2705   0.0000   0.0000   0.0000   0.3685
  23.000   0.8271   0.28620   0.28208  -0.1147  0.0507  0.9999  -1.3175   0.0000   0.0000   0.0000   0.3676
  24.000   0.8285   0.29594   0.29188  -0.1219  0.0459  0.9999  -1.2089   0.0000   0.0000   0.0000   0.3746
  25.000   0.8413   0.31077   0.30679  -0.1262  0.0395  0.9999  -1.2716   0.0000   0.0000   0.0000   0.3756
  26.000   0.8584   0.33248   0.32860  -0.1294  0.0369  0.9999  -1.3478   0.0000   0.0000   0.0000   0.3744
  27.000   0.8593   0.34200   0.33817  -0.1364  0.0345  0.9999  -1.1765   0.0000   0.0000   0.0000   0.3806
  28.000   0.8679   0.35733   0.35359  -0.1414  0.0299  0.9999  -1.1202   0.0000   0.0000   0.0000   0.3827
  29.000   0.8770   0.37320   0.36955  -0.1457  0.0264  0.9999  -1.1363   0.0000   0.0000   0.0000   0.3834
  30.000   0.8868   0.39424   0.39068  -0.1495  0.0248  0.9999  -1.1367   0.0000   0.0000   0.0000   0.3835


