xflr5 v6.61

 Calculated polar for: TJ1_10_00

 1 1 Reynolds number fixed          Mach number fixed         

 xtrf =   1.000 (top)        1.000 (bottom)
 Mach =   0.200     Re =     0.050 e 6     Ncrit =   9.000

  alpha     CL        CD       CDp       Cm    Top Xtr Bot Xtr   Cpmin    Chinge    XCp    
 ------- -------- --------- --------- -------- ------- ------- -------- --------- ---------
 -20.000  -0.7066   0.25714   0.24916   0.0500  1.0001  0.0776  -1.4140   0.0000   0.0000   0.0000   0.3056
 -19.000  -0.6703   0.24562   0.23758   0.0415  1.0001  0.0853  -1.4145   0.0000   0.0000   0.0000   0.2979
 -18.000  -0.6569   0.24948   0.24155   0.0290  1.0001  0.0884  -1.5610   0.0000   0.0000   0.0000   0.2817
 -17.000  -0.5973   0.21899   0.21103   0.0267  1.0001  0.0964  -1.3623   0.0000   0.0000   0.0000   0.2825
 -16.000  -0.5754   0.21313   0.20525   0.0171  1.0001  0.1049  -1.4110   0.0000   0.0000   0.0000   0.2687
 -15.000  -0.5300   0.19332   0.18542   0.0132  1.0001  0.1124  -1.2875   0.0000   0.0000   0.0000   0.2643
 -14.000  -0.5318   0.19212   0.18437   0.0035  1.0001  0.1226  -1.4135   0.0000   0.0000   0.0000   0.2471
 -13.000  -0.4848   0.17217   0.16446   0.0004  1.0001  0.1390  -1.3610   0.0000   0.0000   0.0000   0.2416
 -12.000  -0.4455   0.15506   0.14743  -0.0026  1.0001  0.1527  -1.3454   0.0000   0.0000   0.0000   0.2352
 -11.000  -0.4201   0.14154   0.13399  -0.0066  1.0001  0.1674  -1.3811   0.0000   0.0000   0.0000   0.2259
 -10.000  -0.3996   0.12881   0.12140  -0.0103  1.0001  0.1864  -1.4214   0.0000   0.0000   0.0000   0.2163
  -9.000  -0.3859   0.11663   0.10944  -0.0136  1.0001  0.2124  -1.4654   0.0000   0.0000   0.0000   0.2076
  -8.000  -0.3739   0.10526   0.09831  -0.0156  1.0001  0.2423  -1.4952   0.0000   0.0000   0.0000   0.2020
  -7.000  -0.3544   0.09209   0.08539  -0.0143  1.0001  0.2710  -1.4830   0.0000   0.0000   0.0000   0.2038
  -6.000  -0.3702   0.08277   0.07647  -0.0086  1.0001  0.3089  -1.5102   0.0000   0.0000   0.0000   0.2221
  -5.000  -0.3709   0.05244   0.04561  -0.0466  1.0001  0.1525  -2.2168   0.0000   0.0000   0.0000   0.1202
  -4.000  -0.2731   0.03556   0.02709  -0.0579  1.0001  0.1893  -2.1877   0.0000   0.0000   0.0000   0.0329
  -3.000  -0.1622   0.02808   0.01876  -0.0601  1.0001  0.2694  -1.8118   0.0000   0.0000   0.0000  -0.1272
  -2.000  -0.0514   0.02448   0.01486  -0.0609  1.0001  0.3858  -1.2918   0.0000   0.0000   0.0000  -0.9480
  -1.000   0.0525   0.02266   0.01356  -0.0598  1.0001  0.5681  -0.8473   0.0000   0.0000   0.0000   1.3959
   0.000   0.1259   0.02175   0.01326  -0.0551  1.0001  0.9999  -0.6207   0.0000   0.0000   0.0000   0.6870
   1.000   0.3009   0.02574   0.01642  -0.0730  0.9591  0.9999  -0.6763   0.0000   0.0000   0.0000   0.4904
   2.000   0.5256   0.02666   0.01718  -0.0910  0.8437  0.9999  -0.9195   0.0000   0.0000   0.0000   0.4201
   3.000   0.6930   0.02399   0.01448  -0.0900  0.7243  0.9999  -1.1662   0.0000   0.0000   0.0000   0.3761
   4.000   0.8128   0.02413   0.01406  -0.0832  0.5892  0.9999  -1.3846   0.0000   0.0000   0.0000   0.3477
   5.000   0.9173   0.02736   0.01689  -0.0788  0.4853  0.9999  -1.6066   0.0000   0.0000   0.0000   0.3303
   6.000   1.0163   0.03205   0.02157  -0.0754  0.4125  0.9999  -1.8617   0.0000   0.0000   0.0000   0.3176
   7.000   1.1069   0.03816   0.02810  -0.0719  0.3577  0.9999  -2.1551   0.0000   0.0000   0.0000   0.3073
   8.000   1.1737   0.04706   0.03788  -0.0674  0.3146  0.9999  -2.5865   0.0000   0.0000   0.0000   0.2987
   9.000   1.2045   0.05988   0.05161  -0.0622  0.2827  0.9999  -2.9388   0.0000   0.0000   0.0000   0.2919
  10.000   1.1104   0.08445   0.07681  -0.0605  0.2673  0.9999  -2.7142   0.0000   0.0000   0.0000   0.2939
  12.000   0.8789   0.15897   0.15113  -0.1046  0.3602  0.9999  -1.5442   0.0000   0.0000   0.0000   0.3577
  13.000   0.9115   0.17466   0.16702  -0.1064  0.3218  0.9999  -1.7350   0.0000   0.0000   0.0000   0.3542
  14.000   0.9313   0.18904   0.18162  -0.1100  0.2878  0.9999  -1.8501   0.0000   0.0000   0.0000   0.3543
  15.000   0.9483   0.20304   0.19574  -0.1158  0.2593  0.9999  -1.9058   0.0000   0.0000   0.0000   0.3569
  16.000   0.9807   0.21951   0.21238  -0.1207  0.2306  0.9999  -1.9626   0.0000   0.0000   0.0000   0.3564
  17.000   1.0138   0.23657   0.22957  -0.1259  0.1975  0.9999  -1.9376   0.0000   0.0000   0.0000   0.3561
  18.000   1.0371   0.24870   0.24178  -0.1345  0.1688  0.9999  -1.8848   0.0000   0.0000   0.0000   0.3599
  19.000   1.0664   0.26346   0.25657  -0.1434  0.1534  0.9999  -1.8417   0.0000   0.0000   0.0000   0.3630
  20.000   1.0977   0.27788   0.27101  -0.1525  0.1395  0.9999  -1.8103   0.0000   0.0000   0.0000   0.3657
  21.000   1.1336   0.29449   0.28767  -0.1602  0.1290  0.9999  -1.8706   0.0000   0.0000   0.0000   0.3661
  22.000   1.1687   0.30896   0.30223  -0.1685  0.1162  0.9999  -1.9322   0.0000   0.0000   0.0000   0.3669
  23.000   1.1967   0.32036   0.31372  -0.1806  0.1096  0.9999  -1.9339   0.0000   0.0000   0.0000   0.3715


