xflr5 v6.61

 Calculated polar for: TJ1_13_00

 1 1 Reynolds number fixed          Mach number fixed         

 xtrf =   1.000 (top)        1.000 (bottom)
 Mach =   0.200     Re =     0.060 e 6     Ncrit =   9.000

  alpha     CL        CD       CDp       Cm    Top Xtr Bot Xtr   Cpmin    Chinge    XCp    
 ------- -------- --------- --------- -------- ------- ------- -------- --------- ---------
 -27.000  -0.5266   0.27397   0.26777   0.0392  1.0001  0.0579  -0.8833   0.0000   0.0000   0.0000   0.3067
 -26.000  -0.5056   0.26222   0.25596   0.0338  1.0001  0.0636  -0.8406   0.0000   0.0000   0.0000   0.3004
 -25.000  -0.4869   0.25197   0.24559   0.0277  1.0001  0.0690  -0.8310   0.0000   0.0000   0.0000   0.2915
 -24.000  -0.4786   0.24922   0.24277   0.0206  1.0001  0.0713  -0.9304   0.0000   0.0000   0.0000   0.2783
 -23.000  -0.4502   0.23154   0.22508   0.0158  1.0001  0.0733  -0.8951   0.0000   0.0000   0.0000   0.2711
 -22.000  -0.4225   0.21896   0.21245   0.0113  1.0001  0.0789  -0.8348   0.0000   0.0000   0.0000   0.2637
 -21.000  -0.4024   0.21007   0.20348   0.0057  1.0001  0.0862  -0.8384   0.0000   0.0000   0.0000   0.2515
 -20.000  -0.3965   0.20676   0.20019  -0.0011  1.0001  0.0889  -0.9420   0.0000   0.0000   0.0000   0.2350
 -19.000  -0.3545   0.18892   0.18232  -0.0038  1.0001  0.0992  -0.8615   0.0000   0.0000   0.0000   0.2273
 -18.000  -0.3607   0.19096   0.18436  -0.0107  1.0001  0.1054  -1.0385   0.0000   0.0000   0.0000   0.2087
 -17.000  -0.3097   0.16968   0.16311  -0.0128  1.0001  0.1141  -0.9386   0.0000   0.0000   0.0000   0.1969
 -16.000  -0.3220   0.17160   0.16501  -0.0189  1.0001  0.1225  -1.1129   0.0000   0.0000   0.0000   0.1797
 -14.000  -0.4695   0.18138   0.17413  -0.0053  1.0001  0.1395  -1.5705   0.0000   0.0000   0.0000   0.2230
 -13.000  -0.4220   0.16282   0.15561  -0.0082  1.0001  0.1554  -1.4800   0.0000   0.0000   0.0000   0.2148
 -12.000  -0.3889   0.14779   0.14066  -0.0117  1.0001  0.1696  -1.4367   0.0000   0.0000   0.0000   0.2045
 -11.000  -0.3846   0.13746   0.13047  -0.0170  1.0001  0.1908  -1.5018   0.0000   0.0000   0.0000   0.1917
 -10.000  -0.3525   0.12200   0.11508  -0.0188  1.0001  0.2129  -1.4836   0.0000   0.0000   0.0000   0.1828
  -9.000  -0.3581   0.11255   0.10582  -0.0220  1.0001  0.2435  -1.5424   0.0000   0.0000   0.0000   0.1766
  -8.000  -0.3295   0.09929   0.09269  -0.0201  1.0001  0.2767  -1.4488   0.0000   0.0000   0.0000   0.1775
  -6.000  -0.4297   0.07325   0.06728  -0.0186  1.0001  0.2334  -1.7674   0.0000   0.0000   0.0000   0.1998
  -5.000  -0.4215   0.04254   0.03513  -0.0465  1.0001  0.2065  -2.1168   0.0000   0.0000   0.0000   0.1327
  -4.000  -0.3277   0.03420   0.02576  -0.0507  1.0001  0.2451  -1.7992   0.0000   0.0000   0.0000   0.0880
  -3.000  -0.2285   0.03045   0.02162  -0.0520  1.0001  0.2918  -1.4496   0.0000   0.0000   0.0000   0.0145
  -2.000  -0.1299   0.02863   0.01945  -0.0539  1.0001  0.3483  -1.1997   0.0000   0.0000   0.0000  -0.1746
  -1.000   0.0694   0.02841   0.01950  -0.0723  0.9514  0.4561  -0.8464   0.0000   0.0000   0.0000   1.2987
   0.000   0.2598   0.02673   0.01898  -0.0824  0.8755  0.6965  -0.7430   0.0000   0.0000   0.0000   0.5660
   1.000   0.4310   0.02372   0.01599  -0.0854  0.7935  0.9999  -0.9381   0.0000   0.0000   0.0000   0.4452
   2.000   0.5842   0.02139   0.01295  -0.0843  0.6992  0.9999  -1.1475   0.0000   0.0000   0.0000   0.3902
   3.000   0.7007   0.02195   0.01265  -0.0801  0.5855  0.9999  -1.3338   0.0000   0.0000   0.0000   0.3591
   4.000   0.8094   0.02433   0.01429  -0.0770  0.4963  0.9999  -1.5212   0.0000   0.0000   0.0000   0.3389
   5.000   0.9131   0.02781   0.01749  -0.0746  0.4326  0.9999  -1.7192   0.0000   0.0000   0.0000   0.3244
   6.000   1.0137   0.03209   0.02166  -0.0723  0.3862  0.9999  -1.9234   0.0000   0.0000   0.0000   0.3130
   7.000   1.0988   0.03778   0.02776  -0.0690  0.3482  0.9999  -2.1195   0.0000   0.0000   0.0000   0.3033
   8.000   1.1785   0.04450   0.03483  -0.0654  0.3186  0.9999  -2.3179   0.0000   0.0000   0.0000   0.2949
   9.000   1.1697   0.05854   0.04995  -0.0582  0.2975  0.9999  -2.3578   0.0000   0.0000   0.0000   0.2881
  13.000   0.8785   0.17634   0.16863  -0.0978  0.3195  0.9999  -1.4391   0.0000   0.0000   0.0000   0.3467
  14.000   0.8644   0.18556   0.17795  -0.1036  0.2925  0.9999  -1.3831   0.0000   0.0000   0.0000   0.3538
  15.000   0.9160   0.20229   0.19482  -0.1059  0.2670  0.9999  -1.4823   0.0000   0.0000   0.0000   0.3480
  16.000   0.9252   0.21267   0.20527  -0.1137  0.2454  0.9999  -1.5293   0.0000   0.0000   0.0000   0.3537
  17.000   0.9559   0.22560   0.21833  -0.1201  0.2234  0.9999  -1.6698   0.0000   0.0000   0.0000   0.3547
  18.000   0.9886   0.23896   0.23188  -0.1269  0.2052  0.9999  -1.8007   0.0000   0.0000   0.0000   0.3556
  19.000   1.0197   0.25266   0.24573  -0.1349  0.1905  0.9999  -1.8872   0.0000   0.0000   0.0000   0.3577
  20.000   1.0531   0.26619   0.25940  -0.1426  0.1712  0.9999  -1.9472   0.0000   0.0000   0.0000   0.3588
  21.000   1.0936   0.28240   0.27576  -0.1484  0.1494  0.9999  -1.9885   0.0000   0.0000   0.0000   0.3570
  22.000   1.1277   0.29781   0.29133  -0.1566  0.1321  0.9999  -1.9818   0.0000   0.0000   0.0000   0.3580
  23.000   1.1507   0.30783   0.30134  -0.1699  0.1212  0.9999  -1.8841   0.0000   0.0000   0.0000   0.3645
  24.000   1.1862   0.32382   0.31739  -0.1779  0.1128  0.9999  -1.9144   0.0000   0.0000   0.0000   0.3645
  25.000   1.2173   0.33451   0.32816  -0.1886  0.1014  0.9999  -1.9246   0.0000   0.0000   0.0000   0.3668
  26.000   1.2529   0.35508   0.34880  -0.1959  0.0974  0.9999  -2.0186   0.0000   0.0000   0.0000   0.3656
  27.000   1.2781   0.35881   0.35267  -0.2104  0.0882  0.9999  -2.0061   0.0000   0.0000   0.0000   0.3710
  28.000   1.3188   0.39288   0.38687  -0.2131  0.0818  0.9999  -2.2428   0.0000   0.0000   0.0000   0.3652
  29.000   1.3376   0.38175   0.37576  -0.2320  0.0774  0.9999  -2.1283   0.0000   0.0000   0.0000   0.3738
  30.000   1.3669   0.39254   0.38668  -0.2420  0.0694  0.9999  -2.2415   0.0000   0.0000   0.0000   0.3741


