xflr5 v6.61

 Calculated polar for: TJ1_7_77

 1 1 Reynolds number fixed          Mach number fixed         

 xtrf =   1.000 (top)        1.000 (bottom)
 Mach =   0.200     Re =     0.500 e 6     Ncrit =   9.000

  alpha     CL        CD       CDp       Cm    Top Xtr Bot Xtr   Cpmin    Chinge    XCp    
 ------- -------- --------- --------- -------- ------- ------- -------- --------- ---------
  -4.000  -0.0824   0.01234   0.00679  -0.0915  0.9772  0.0148  -3.0357   0.0000   0.0000   0.0000  -0.8730
  -3.000   0.0641   0.00943   0.00349  -0.0973  0.9637  0.0299  -2.2128   0.0000   0.0000   0.0000   1.7816
  -2.000   0.1857   0.00788   0.00244  -0.0978  0.9388  0.1928  -1.2655   0.0000   0.0000   0.0000   0.7789
  -1.000   0.2929   0.00682   0.00198  -0.0952  0.9035  0.4128  -0.6221   0.0000   0.0000   0.0000   0.5752
   0.000   0.3943   0.00543   0.00181  -0.0909  0.8534  0.8500  -0.6119   0.0000   0.0000   0.0000   0.4798
   1.000   0.5032   0.00544   0.00149  -0.0881  0.7558  0.9999  -0.7629   0.0000   0.0000   0.0000   0.4233
   2.000   0.6123   0.00641   0.00167  -0.0863  0.5968  0.9999  -0.9441   0.0000   0.0000   0.0000   0.3884
   3.000   0.7205   0.00778   0.00222  -0.0850  0.4250  0.9999  -1.1624   0.0000   0.0000   0.0000   0.3646
   4.000   0.8295   0.00913   0.00302  -0.0839  0.3034  0.9999  -1.4249   0.0000   0.0000   0.0000   0.3470
   5.000   0.9390   0.01037   0.00402  -0.0829  0.2318  0.9999  -1.9732   0.0000   0.0000   0.0000   0.3331
   6.000   1.0468   0.01175   0.00514  -0.0816  0.1556  0.9999  -2.8277   0.0000   0.0000   0.0000   0.3218
   7.000   1.1517   0.01345   0.00664  -0.0798  0.0910  0.9999  -3.7841   0.0000   0.0000   0.0000   0.3119
   8.000   1.2447   0.01691   0.00979  -0.0762  0.0159  0.9999  -4.7327   0.0000   0.0000   0.0000   0.3025
   9.000   1.3346   0.02027   0.01368  -0.0717  0.0132  0.9999  -5.7433   0.0000   0.0000   0.0000   0.2937
  10.000   1.4019   0.02537   0.01937  -0.0646  0.0118  0.9999  -6.6080   0.0000   0.0000   0.0000   0.2846
  11.000   1.4227   0.03301   0.02775  -0.0527  0.0110  0.9999  -7.1526   0.0000   0.0000   0.0000   0.2741
  12.000   1.4037   0.04428   0.03983  -0.0429  0.0109  0.9999  -7.5347   0.0000   0.0000   0.0000   0.2661
  13.000   1.3620   0.06221   0.05856  -0.0446  0.0110  0.9999  -7.6721   0.0000   0.0000   0.0000   0.2665
  14.000   1.2997   0.08959   0.08665  -0.0589  0.0112  0.9999  -7.4491   0.0000   0.0000   0.0000   0.2774
  15.000   1.2188   0.12499   0.12262  -0.0790  0.0115  0.9999  -6.7289   0.0000   0.0000   0.0000   0.2958
  16.000   1.0470   0.20273   0.20066  -0.1194  0.0194  0.9999  -2.8558   0.0000   0.0000   0.0000   0.3475
  17.000   0.7710   0.18042   0.17852  -0.0837  0.0184  0.9999  -2.0920   0.0000   0.0000   0.0000   0.3436


