xflr5 v6.61

 Calculated polar for: TJ1_13_00

 1 1 Reynolds number fixed          Mach number fixed         

 xtrf =   1.000 (top)        1.000 (bottom)
 Mach =   0.200     Re =     0.090 e 6     Ncrit =   9.000

  alpha     CL        CD       CDp       Cm    Top Xtr Bot Xtr   Cpmin    Chinge    XCp    
 ------- -------- --------- --------- -------- ------- ------- -------- --------- ---------
 -26.000  -0.8760   0.32224   0.31614   0.0950  1.0001  0.0416  -1.7044   0.0000   0.0000   0.0000   0.3277
 -25.000  -0.8390   0.30956   0.30343   0.0866  1.0001  0.0448  -1.5785   0.0000   0.0000   0.0000   0.3244
 -24.000  -0.8021   0.29811   0.29196   0.0770  1.0001  0.0500  -1.5268   0.0000   0.0000   0.0000   0.3190
 -23.000  -0.7670   0.29005   0.28384   0.0653  1.0001  0.0541  -1.5767   0.0000   0.0000   0.0000   0.3097
 -22.000  -0.7409   0.28915   0.28297   0.0525  1.0001  0.0550  -1.6664   0.0000   0.0000   0.0000   0.2972
 -21.000  -0.6967   0.26445   0.25829   0.0461  1.0001  0.0564  -1.5692   0.0000   0.0000   0.0000   0.2934
 -20.000  -0.6528   0.24861   0.24244   0.0406  1.0001  0.0602  -1.4079   0.0000   0.0000   0.0000   0.2906
 -19.000  -0.6143   0.23632   0.23012   0.0326  1.0001  0.0664  -1.3720   0.0000   0.0000   0.0000   0.2826
 -18.000  -0.5956   0.23282   0.22669   0.0196  1.0001  0.0713  -1.5677   0.0000   0.0000   0.0000   0.2639
 -17.000  -0.5449   0.21009   0.20399   0.0161  1.0001  0.0749  -1.4799   0.0000   0.0000   0.0000   0.2608
 -16.000  -0.5131   0.19955   0.19349   0.0083  1.0001  0.0870  -1.5107   0.0000   0.0000   0.0000   0.2483
 -15.000  -0.4824   0.18428   0.17830   0.0016  1.0001  0.0907  -1.5577   0.0000   0.0000   0.0000   0.2361
 -14.000  -0.4450   0.17080   0.16482  -0.0029  1.0001  0.1016  -1.5072   0.0000   0.0000   0.0000   0.2267
 -13.000  -0.4201   0.15676   0.15087  -0.0088  1.0001  0.1099  -1.5403   0.0000   0.0000   0.0000   0.2129
 -11.000  -0.3907   0.13191   0.12620  -0.0206  1.0001  0.1386  -1.6132   0.0000   0.0000   0.0000   0.1829
 -10.000  -0.3675   0.11753   0.11191  -0.0240  1.0001  0.1552  -1.6137   0.0000   0.0000   0.0000   0.1711
  -9.000  -0.3946   0.10642   0.10102  -0.0320  1.0001  0.1743  -1.8060   0.0000   0.0000   0.0000   0.1573
  -8.000  -0.4221   0.08355   0.07837  -0.0351  1.0001  0.1415  -2.0964   0.0000   0.0000   0.0000   0.1566
  -7.000  -0.4890   0.06545   0.06046  -0.0379  1.0001  0.1340  -2.4133   0.0000   0.0000   0.0000   0.1642
  -6.000  -0.4976   0.03512   0.02804  -0.0561  1.0001  0.1410  -2.8250   0.0000   0.0000   0.0000   0.1290
  -5.000  -0.4093   0.03032   0.02274  -0.0553  1.0001  0.1691  -2.3276   0.0000   0.0000   0.0000   0.1068
  -4.000  -0.3087   0.02669   0.01847  -0.0562  1.0001  0.2054  -1.8856   0.0000   0.0000   0.0000   0.0597
  -3.000  -0.1733   0.02493   0.01643  -0.0629  0.9888  0.2539  -1.4391   0.0000   0.0000   0.0000  -0.1241
  -2.000   0.0292   0.02363   0.01507  -0.0801  0.9441  0.3296  -1.0320   0.0000   0.0000   0.0000   3.0266
  -1.000   0.2175   0.02158   0.01358  -0.0917  0.8922  0.4409  -0.7034   0.0000   0.0000   0.0000   0.6728
   0.000   0.3587   0.01858   0.01177  -0.0907  0.8326  0.6766  -0.8386   0.0000   0.0000   0.0000   0.5013
   1.000   0.4812   0.01580   0.00922  -0.0840  0.7556  0.9999  -1.0067   0.0000   0.0000   0.0000   0.4213
   2.000   0.5994   0.01565   0.00811  -0.0810  0.6379  0.9999  -1.1857   0.0000   0.0000   0.0000   0.3807
   3.000   0.7069   0.01716   0.00856  -0.0778  0.5187  0.9999  -1.3671   0.0000   0.0000   0.0000   0.3545
   4.000   0.8137   0.01939   0.01005  -0.0756  0.4342  0.9999  -1.5597   0.0000   0.0000   0.0000   0.3363
   5.000   0.9210   0.02198   0.01222  -0.0739  0.3764  0.9999  -1.7751   0.0000   0.0000   0.0000   0.3226
   6.000   1.0279   0.02505   0.01509  -0.0723  0.3349  0.9999  -2.0027   0.0000   0.0000   0.0000   0.3116
   7.000   1.1319   0.02865   0.01866  -0.0706  0.3020  0.9999  -2.2509   0.0000   0.0000   0.0000   0.3024
   8.000   1.2227   0.03293   0.02348  -0.0673  0.2729  0.9999  -2.4848   0.0000   0.0000   0.0000   0.2938
   9.000   1.3129   0.03809   0.02886  -0.0643  0.2499  0.9999  -2.7937   0.0000   0.0000   0.0000   0.2864
  10.000   1.3665   0.04543   0.03716  -0.0580  0.2301  0.9999  -3.0327   0.0000   0.0000   0.0000   0.2785
  11.000   1.3872   0.05476   0.04727  -0.0500  0.2135  0.9999  -3.2403   0.0000   0.0000   0.0000   0.2707
  14.000   0.9010   0.17996   0.17377  -0.0976  0.2312  0.9999  -1.5462   0.0000   0.0000   0.0000   0.3418
  15.000   0.9130   0.19374   0.18763  -0.1046  0.2112  0.9999  -1.5164   0.0000   0.0000   0.0000   0.3467
  16.000   0.9384   0.20762   0.20160  -0.1111  0.1926  0.9999  -1.6443   0.0000   0.0000   0.0000   0.3489
  17.000   0.9690   0.22162   0.21576  -0.1176  0.1775  0.9999  -1.7901   0.0000   0.0000   0.0000   0.3502
  18.000   1.0385   0.24359   0.23794  -0.1172  0.1646  0.9999  -2.1463   0.0000   0.0000   0.0000   0.3398
  19.000   1.0516   0.25248   0.24693  -0.1273  0.1485  0.9999  -2.1633   0.0000   0.0000   0.0000   0.3460
  20.000   1.0824   0.26869   0.26325  -0.1349  0.1307  0.9999  -2.2055   0.0000   0.0000   0.0000   0.3476
  21.000   1.1040   0.28108   0.27568  -0.1458  0.1137  0.9999  -2.0768   0.0000   0.0000   0.0000   0.3530
  22.000   1.1476   0.30153   0.29627  -0.1509  0.0980  0.9999  -2.1820   0.0000   0.0000   0.0000   0.3501
  23.000   1.1557   0.30531   0.30002  -0.1701  0.0887  0.9999  -1.9279   0.0000   0.0000   0.0000   0.3637
  24.000   1.2062   0.33063   0.32549  -0.1709  0.0821  0.9999  -2.1553   0.0000   0.0000   0.0000   0.3557
  25.000   1.2198   0.33318   0.32798  -0.1897  0.0791  0.9999  -1.9448   0.0000   0.0000   0.0000   0.3671
  26.000   1.2523   0.34479   0.33967  -0.1993  0.0693  0.9999  -2.0317   0.0000   0.0000   0.0000   0.3680
  27.000   1.2918   0.37320   0.36823  -0.2031  0.0660  0.9999  -2.2636   0.0000   0.0000   0.0000   0.3633
  28.000   1.3113   0.36919   0.36423  -0.2222  0.0616  0.9999  -2.0984   0.0000   0.0000   0.0000   0.3726
  29.000   1.3415   0.37962   0.37476  -0.2321  0.0543  0.9999  -2.2339   0.0000   0.0000   0.0000   0.3729
  30.000   1.3756   0.41381   0.40905  -0.2353  0.0510  0.9999  -2.4986   0.0000   0.0000   0.0000   0.3678


