xflr5 v6.61

 Calculated polar for: TJ1_10_00

 1 1 Reynolds number fixed          Mach number fixed         

 xtrf =   1.000 (top)        1.000 (bottom)
 Mach =   0.200     Re =     0.080 e 6     Ncrit =   9.000

  alpha     CL        CD       CDp       Cm    Top Xtr Bot Xtr   Cpmin    Chinge    XCp    
 ------- -------- --------- --------- -------- ------- ------- -------- --------- ---------
 -22.000  -0.7828   0.28089   0.27457   0.0685  1.0001  0.0429  -1.5767   0.0000   0.0000   0.0000   0.3199
 -21.000  -0.7452   0.26808   0.26174   0.0603  1.0001  0.0468  -1.4890   0.0000   0.0000   0.0000   0.3145
 -20.000  -0.7083   0.25672   0.25038   0.0508  1.0001  0.0529  -1.4510   0.0000   0.0000   0.0000   0.3066
 -19.000  -0.6871   0.25807   0.25174   0.0376  1.0001  0.0550  -1.6233   0.0000   0.0000   0.0000   0.2909
 -18.000  -0.6372   0.23035   0.22402   0.0339  1.0001  0.0578  -1.4862   0.0000   0.0000   0.0000   0.2900
 -17.000  -0.5985   0.21660   0.21028   0.0277  1.0001  0.0633  -1.4043   0.0000   0.0000   0.0000   0.2839
 -16.000  -0.5673   0.20586   0.19958   0.0189  1.0001  0.0700  -1.4191   0.0000   0.0000   0.0000   0.2719
 -15.000  -0.5660   0.20449   0.19832   0.0071  1.0001  0.0716  -1.5915   0.0000   0.0000   0.0000   0.2524
 -14.000  -0.4996   0.17704   0.17081   0.0074  1.0001  0.0786  -1.2895   0.0000   0.0000   0.0000   0.2545
 -13.000  -0.4853   0.16806   0.16192  -0.0013  1.0001  0.0876  -1.4138   0.0000   0.0000   0.0000   0.2379
 -12.000  -0.4481   0.15044   0.14437  -0.0044  1.0001  0.0928  -1.3938   0.0000   0.0000   0.0000   0.2310
 -11.000  -0.4525   0.14298   0.13707  -0.0144  1.0001  0.1052  -1.5841   0.0000   0.0000   0.0000   0.2103
 -10.000  -0.4103   0.12558   0.11971  -0.0152  1.0001  0.1208  -1.5209   0.0000   0.0000   0.0000   0.2053
  -9.000  -0.3821   0.11073   0.10499  -0.0178  1.0001  0.1316  -1.5307   0.0000   0.0000   0.0000   0.1961
  -8.000  -0.3717   0.09781   0.09229  -0.0224  1.0001  0.1452  -1.6086   0.0000   0.0000   0.0000   0.1832
  -7.000  -0.3719   0.08676   0.08154  -0.0223  1.0001  0.1653  -1.6480   0.0000   0.0000   0.0000   0.1846
  -6.000  -0.4180   0.06356   0.05848  -0.0413  1.0001  0.1082  -2.2896   0.0000   0.0000   0.0000   0.1466
  -5.000  -0.3565   0.03366   0.02647  -0.0615  1.0001  0.0911  -2.8422   0.0000   0.0000   0.0000   0.0718
  -4.000  -0.2488   0.02545   0.01707  -0.0637  1.0001  0.1338  -2.4309   0.0000   0.0000   0.0000  -0.0122
  -3.000  -0.1376   0.02200   0.01319  -0.0644  1.0001  0.2140  -1.8978   0.0000   0.0000   0.0000  -0.2263
  -2.000  -0.0298   0.02033   0.01154  -0.0649  1.0001  0.3148  -1.3125   0.0000   0.0000   0.0000  -1.9498
  -1.000   0.0735   0.01968   0.01155  -0.0655  1.0001  0.4600  -0.8428   0.0000   0.0000   0.0000   1.1453
   0.000   0.2576   0.01882   0.01187  -0.0777  0.9475  0.9999  -0.6078   0.0000   0.0000   0.0000   0.5506
   1.000   0.4558   0.01851   0.01107  -0.0909  0.8765  0.9999  -0.8201   0.0000   0.0000   0.0000   0.4473
   2.000   0.6005   0.01663   0.00901  -0.0900  0.7893  0.9999  -1.0234   0.0000   0.0000   0.0000   0.3967
   3.000   0.7156   0.01606   0.00777  -0.0839  0.6493  0.9999  -1.2272   0.0000   0.0000   0.0000   0.3633
   4.000   0.8182   0.01806   0.00882  -0.0792  0.5011  0.9999  -1.4305   0.0000   0.0000   0.0000   0.3418
   5.000   0.9226   0.02094   0.01108  -0.0764  0.4074  0.9999  -1.6660   0.0000   0.0000   0.0000   0.3269
   6.000   1.0263   0.02429   0.01440  -0.0741  0.3432  0.9999  -1.9491   0.0000   0.0000   0.0000   0.3152
   7.000   1.1274   0.02836   0.01865  -0.0716  0.2951  0.9999  -2.3051   0.0000   0.0000   0.0000   0.3054
   8.000   1.2218   0.03324   0.02403  -0.0684  0.2550  0.9999  -2.9675   0.0000   0.0000   0.0000   0.2967
   9.000   1.3063   0.03878   0.03010  -0.0642  0.2179  0.9999  -3.6432   0.0000   0.0000   0.0000   0.2885
  10.000   1.3666   0.04600   0.03831  -0.0580  0.1850  0.9999  -4.2291   0.0000   0.0000   0.0000   0.2804
  11.000   1.3787   0.05569   0.04907  -0.0487  0.1574  0.9999  -4.5958   0.0000   0.0000   0.0000   0.2720
  12.000   1.3117   0.07056   0.06478  -0.0396  0.1442  0.9999  -4.5672   0.0000   0.0000   0.0000   0.2654
  16.000   0.9888   0.21213   0.20656  -0.1175  0.1546  0.9999  -2.0652   0.0000   0.0000   0.0000   0.3518
  17.000   1.0344   0.23282   0.22741  -0.1196  0.1305  0.9999  -2.1075   0.0000   0.0000   0.0000   0.3470
  18.000   1.0644   0.25056   0.24516  -0.1267  0.1141  0.9999  -2.0996   0.0000   0.0000   0.0000   0.3489
  19.000   1.0726   0.25947   0.25402  -0.1422  0.1027  0.9999  -1.9029   0.0000   0.0000   0.0000   0.3608
  20.000   1.1139   0.28052   0.27513  -0.1471  0.0974  0.9999  -1.9877   0.0000   0.0000   0.0000   0.3584
  21.000   1.1353   0.28925   0.28386  -0.1614  0.0873  0.9999  -1.9041   0.0000   0.0000   0.0000   0.3667
  22.000   1.1750   0.31017   0.30484  -0.1665  0.0813  0.9999  -2.0571   0.0000   0.0000   0.0000   0.3640
  23.000   1.1999   0.31741   0.31216  -0.1813  0.0722  0.9999  -2.0024   0.0000   0.0000   0.0000   0.3713
  24.000   1.2482   0.35241   0.34731  -0.1815  0.0662  0.9999  -2.3209   0.0000   0.0000   0.0000   0.3634
  25.000   1.2640   0.34528   0.34012  -0.2017  0.0628  0.9999  -2.0783   0.0000   0.0000   0.0000   0.3751
  26.000   1.2962   0.35778   0.35271  -0.2113  0.0541  0.9999  -2.2118   0.0000   0.0000   0.0000   0.3760
  27.000   1.3320   0.38859   0.38367  -0.2156  0.0510  0.9999  -2.4314   0.0000   0.0000   0.0000   0.3723
  28.000   1.3566   0.38218   0.37725  -0.2344  0.0468  0.9999  -2.2438   0.0000   0.0000   0.0000   0.3803
  29.000   1.3860   0.39315   0.38830  -0.2449  0.0406  0.9999  -2.2967   0.0000   0.0000   0.0000   0.3813


