xflr5 v6.61

 Calculated polar for: TJ1_13_00

 1 1 Reynolds number fixed          Mach number fixed         

 xtrf =   1.000 (top)        1.000 (bottom)
 Mach =   0.200     Re =     0.050 e 6     Ncrit =   9.000

  alpha     CL        CD       CDp       Cm    Top Xtr Bot Xtr   Cpmin    Chinge    XCp    
 ------- -------- --------- --------- -------- ------- ------- -------- --------- ---------
 -30.000  -0.5774   0.31084   0.30436   0.0563  1.0001  0.0568  -0.9030   0.0000   0.0000   0.0000   0.3257
 -29.000  -0.5586   0.29729   0.29067   0.0510  1.0001  0.0608  -0.8483   0.0000   0.0000   0.0000   0.3210
 -28.000  -0.5414   0.28586   0.27915   0.0451  1.0001  0.0658  -0.8418   0.0000   0.0000   0.0000   0.3144
 -27.000  -0.5289   0.27897   0.27216   0.0382  1.0001  0.0708  -0.8905   0.0000   0.0000   0.0000   0.3047
 -26.000  -0.5206   0.27433   0.26749   0.0314  1.0001  0.0719  -0.9472   0.0000   0.0000   0.0000   0.2938
 -25.000  -0.4863   0.25216   0.24519   0.0274  1.0001  0.0765  -0.8269   0.0000   0.0000   0.0000   0.2910
 -24.000  -0.4650   0.24133   0.23429   0.0219  1.0001  0.0827  -0.8280   0.0000   0.0000   0.0000   0.2827
 -23.000  -0.4520   0.23581   0.22871   0.0153  1.0001  0.0877  -0.8866   0.0000   0.0000   0.0000   0.2702
 -22.000  -0.4277   0.22207   0.21496   0.0102  1.0001  0.0903  -0.8704   0.0000   0.0000   0.0000   0.2608
 -21.000  -0.3997   0.20989   0.20269   0.0059  1.0001  0.0988  -0.8132   0.0000   0.0000   0.0000   0.2523
 -20.000  -0.4015   0.21211   0.20489  -0.0010  1.0001  0.1054  -0.9426   0.0000   0.0000   0.0000   0.2354
 -19.000  -0.3545   0.18999   0.18278  -0.0038  1.0001  0.1140  -0.8632   0.0000   0.0000   0.0000   0.2274
 -18.000  -0.3522   0.18894   0.18172  -0.0099  1.0001  0.1223  -0.9902   0.0000   0.0000   0.0000   0.2103
 -16.000  -0.5039   0.20131   0.19319   0.0099  1.0001  0.1352  -1.4159   0.0000   0.0000   0.0000   0.2518
 -15.000  -0.4701   0.18807   0.17999   0.0040  1.0001  0.1477  -1.4154   0.0000   0.0000   0.0000   0.2414
 -14.000  -0.4422   0.17560   0.16762  -0.0018  1.0001  0.1616  -1.4302   0.0000   0.0000   0.0000   0.2293
 -13.000  -0.4237   0.16439   0.15652  -0.0076  1.0001  0.1762  -1.4645   0.0000   0.0000   0.0000   0.2164
 -12.000  -0.3926   0.15009   0.14230  -0.0111  1.0001  0.1950  -1.4251   0.0000   0.0000   0.0000   0.2066
 -11.000  -0.3706   0.13810   0.13042  -0.0139  1.0001  0.2243  -1.4285   0.0000   0.0000   0.0000   0.1979
 -10.000  -0.3498   0.12449   0.11690  -0.0165  1.0001  0.2473  -1.4448   0.0000   0.0000   0.0000   0.1889
  -9.000  -0.3224   0.11189   0.10441  -0.0167  1.0001  0.2866  -1.3908   0.0000   0.0000   0.0000   0.1849
  -8.000  -0.3082   0.10049   0.09318  -0.0161  1.0001  0.3214  -1.3482   0.0000   0.0000   0.0000   0.1853
  -7.000  -0.2992   0.09091   0.08384  -0.0108  1.0001  0.3758  -1.2644   0.0000   0.0000   0.0000   0.2029
  -5.000  -0.4259   0.05262   0.04550  -0.0349  1.0001  0.2339  -1.9258   0.0000   0.0000   0.0000   0.1618
  -4.000  -0.3449   0.03993   0.03181  -0.0435  1.0001  0.2674  -1.7283   0.0000   0.0000   0.0000   0.1173
  -3.000  -0.2409   0.03355   0.02457  -0.0484  1.0001  0.3168  -1.4243   0.0000   0.0000   0.0000   0.0421
  -2.000  -0.1421   0.03086   0.02161  -0.0504  1.0001  0.3755  -1.1829   0.0000   0.0000   0.0000  -0.1129
  -1.000  -0.0403   0.03040   0.02109  -0.0541  0.9963  0.4540  -0.9588   0.0000   0.0000   0.0000  -1.1100
   0.000   0.1857   0.03057   0.02225  -0.0736  0.9119  0.6841  -0.6798   0.0000   0.0000   0.0000   0.6461
   1.000   0.3804   0.02874   0.02037  -0.0838  0.8162  0.9999  -0.8800   0.0000   0.0000   0.0000   0.4677
   2.000   0.5564   0.02632   0.01736  -0.0861  0.7217  0.9999  -1.1020   0.0000   0.0000   0.0000   0.4008
   3.000   0.6896   0.02565   0.01600  -0.0822  0.6181  0.9999  -1.3030   0.0000   0.0000   0.0000   0.3642
   4.000   0.8018   0.02780   0.01749  -0.0786  0.5293  0.9999  -1.4901   0.0000   0.0000   0.0000   0.3420
   5.000   0.9015   0.03181   0.02131  -0.0756  0.4632  0.9999  -1.6760   0.0000   0.0000   0.0000   0.3268
   6.000   0.9906   0.03729   0.02687  -0.0724  0.4138  0.9999  -1.8514   0.0000   0.0000   0.0000   0.3151
   7.000   1.0642   0.04454   0.03448  -0.0687  0.3757  0.9999  -2.0179   0.0000   0.0000   0.0000   0.3055
   8.000   1.0687   0.05865   0.04931  -0.0638  0.3503  0.9999  -2.0391   0.0000   0.0000   0.0000   0.2996
   9.000   0.8410   0.10323   0.09418  -0.0775  0.3503  0.9999  -1.4989   0.0000   0.0000   0.0000   0.3317
  10.000   0.7445   0.13641   0.12760  -0.0970  0.4613  0.9999  -1.1640   0.0000   0.0000   0.0000   0.3696
  11.000   0.7909   0.15097   0.14227  -0.0978  0.4230  0.9999  -1.2465   0.0000   0.0000   0.0000   0.3617
  12.000   0.8137   0.16355   0.15495  -0.0992  0.3901  0.9999  -1.2865   0.0000   0.0000   0.0000   0.3587
  13.000   0.8499   0.17756   0.16908  -0.1009  0.3548  0.9999  -1.3462   0.0000   0.0000   0.0000   0.3542
  14.000   0.8558   0.18793   0.17958  -0.1054  0.3263  0.9999  -1.3436   0.0000   0.0000   0.0000   0.3572
  15.000   0.8900   0.20188   0.19364  -0.1095  0.2988  0.9999  -1.3896   0.0000   0.0000   0.0000   0.3555
  16.000   0.9213   0.21458   0.20647  -0.1147  0.2723  0.9999  -1.4926   0.0000   0.0000   0.0000   0.3554
  17.000   0.9613   0.22999   0.22205  -0.1196  0.2521  0.9999  -1.6708   0.0000   0.0000   0.0000   0.3537
  18.000   0.9940   0.24461   0.23687  -0.1261  0.2320  0.9999  -1.8032   0.0000   0.0000   0.0000   0.3543
  19.000   1.0256   0.25842   0.25083  -0.1334  0.2148  0.9999  -1.8992   0.0000   0.0000   0.0000   0.3557
  20.000   1.0500   0.26823   0.26076  -0.1431  0.1938  0.9999  -1.9134   0.0000   0.0000   0.0000   0.3598
  21.000   1.0828   0.28153   0.27420  -0.1515  0.1715  0.9999  -1.9067   0.0000   0.0000   0.0000   0.3614
  22.000   1.1183   0.29601   0.28886  -0.1594  0.1513  0.9999  -1.9009   0.0000   0.0000   0.0000   0.3618
  23.000   1.1484   0.30900   0.30189  -0.1699  0.1387  0.9999  -1.8705   0.0000   0.0000   0.0000   0.3650
  24.000   1.1854   0.32647   0.31943  -0.1774  0.1297  0.9999  -1.9067   0.0000   0.0000   0.0000   0.3643
  25.000   1.2184   0.33819   0.33125  -0.1868  0.1161  0.9999  -1.9397   0.0000   0.0000   0.0000   0.3654
  26.000   1.2457   0.34869   0.34178  -0.1992  0.1109  0.9999  -1.9217   0.0000   0.0000   0.0000   0.3693
  27.000   1.2782   0.36104   0.35433  -0.2087  0.1010  0.9999  -2.0193   0.0000   0.0000   0.0000   0.3698
  28.000   1.3082   0.37482   0.36818  -0.2190  0.0964  0.9999  -2.0752   0.0000   0.0000   0.0000   0.3710
  29.000   1.3367   0.38229   0.37575  -0.2311  0.0867  0.9999  -2.1213   0.0000   0.0000   0.0000   0.3733
  30.000   1.3722   0.41861   0.41222  -0.2351  0.0818  0.9999  -2.3425   0.0000   0.0000   0.0000   0.3688


