xflr5 v6.61

 Calculated polar for: TJ1_7_00

 1 1 Reynolds number fixed          Mach number fixed         

 xtrf =   1.000 (top)        1.000 (bottom)
 Mach =   0.200     Re =     0.075 e 6     Ncrit =   9.000

  alpha     CL        CD       CDp       Cm    Top Xtr Bot Xtr   Cpmin    Chinge    XCp    
 ------- -------- --------- --------- -------- ------- ------- -------- --------- ---------
 -19.000  -0.4628   0.20019   0.19458   0.0145  1.0001  0.0437  -0.9662   0.0000   0.0000   0.0000   0.2777
 -18.000  -0.4406   0.18970   0.18406   0.0098  1.0001  0.0485  -0.9555   0.0000   0.0000   0.0000   0.2691
 -17.000  -0.4229   0.18184   0.17613   0.0043  1.0001  0.0536  -0.9925   0.0000   0.0000   0.0000   0.2574
 -16.000  -0.4258   0.18312   0.17743  -0.0020  1.0001  0.0550  -1.1284   0.0000   0.0000   0.0000   0.2428
 -15.000  -0.3793   0.16020   0.15451  -0.0037  1.0001  0.0624  -0.9134   0.0000   0.0000   0.0000   0.2380
 -14.000  -0.3693   0.15428   0.14860  -0.0084  1.0001  0.0703  -1.0071   0.0000   0.0000   0.0000   0.2249
 -13.000  -0.3569   0.14439   0.13876  -0.0119  1.0001  0.0736  -1.0820   0.0000   0.0000   0.0000   0.2146
 -12.000  -0.3379   0.13385   0.12818  -0.0133  1.0001  0.0831  -1.0632   0.0000   0.0000   0.0000   0.2083
 -11.000  -0.3604   0.13098   0.12542  -0.0198  1.0001  0.0883  -1.2827   0.0000   0.0000   0.0000   0.1931
 -10.000  -0.3150   0.11176   0.10623  -0.0186  1.0001  0.1004  -1.1058   0.0000   0.0000   0.0000   0.1888
  -9.000  -0.3110   0.09941   0.09402  -0.0217  1.0001  0.1088  -1.1432   0.0000   0.0000   0.0000   0.1783
  -8.000  -0.3248   0.08990   0.08475  -0.0261  1.0001  0.1222  -1.2336   0.0000   0.0000   0.0000   0.1684
  -6.000  -0.3883   0.07997   0.07480  -0.0247  1.0001  0.1431  -1.3957   0.0000   0.0000   0.0000   0.1843
  -4.000  -0.3069   0.05506   0.05002  -0.0349  1.0001  0.2297  -1.3660   0.0000   0.0000   0.0000   0.1350
  -3.000  -0.1138   0.02607   0.01770  -0.0678  1.0001  0.0790  -2.0847   0.0000   0.0000   0.0000  -0.3501
  -2.000   0.0160   0.01881   0.00937  -0.0697  1.0001  0.1258  -1.8853   0.0000   0.0000   0.0000   4.6396
  -1.000   0.1154   0.01405   0.00733  -0.0654  1.0001  0.9999  -1.2800   0.0000   0.0000   0.0000   0.8181
   0.000   0.2229   0.01524   0.00734  -0.0665  1.0001  0.9999  -0.6301   0.0000   0.0000   0.0000   0.5477
   1.000   0.3198   0.01725   0.00892  -0.0674  1.0001  0.9999  -0.5626   0.0000   0.0000   0.0000   0.4593
   2.000   0.5482   0.01860   0.01028  -0.0902  0.9248  0.9999  -0.8146   0.0000   0.0000   0.0000   0.4124
   3.000   0.7104   0.01680   0.00888  -0.0925  0.8169  0.9999  -1.0796   0.0000   0.0000   0.0000   0.3774
   4.000   0.8212   0.01619   0.00784  -0.0837  0.6191  0.9999  -1.3689   0.0000   0.0000   0.0000   0.3483
   5.000   0.9182   0.01932   0.01005  -0.0779  0.4324  0.9999  -1.9906   0.0000   0.0000   0.0000   0.3303
   6.000   1.0180   0.02328   0.01382  -0.0743  0.3229  0.9999  -2.7898   0.0000   0.0000   0.0000   0.3174
   7.000   1.1136   0.02785   0.01849  -0.0704  0.2330  0.9999  -3.6589   0.0000   0.0000   0.0000   0.3065
   8.000   1.1773   0.03171   0.02277  -0.0628  0.1066  0.9999  -4.3837   0.0000   0.0000   0.0000   0.2953
   9.000   1.2377   0.04380   0.03563  -0.0553  0.0623  0.9999  -4.6350   0.0000   0.0000   0.0000   0.2854
  10.000   1.2357   0.06096   0.05469  -0.0463  0.0585  0.9999  -4.6320   0.0000   0.0000   0.0000   0.2773
  11.000   1.1418   0.08235   0.07712  -0.0459  0.0605  0.9999  -4.2370   0.0000   0.0000   0.0000   0.2790
  12.000   1.0461   0.12042   0.11539  -0.0703  0.0651  0.9999  -3.4613   0.0000   0.0000   0.0000   0.3055
  13.000   0.9922   0.16051   0.15523  -0.0927  0.0788  0.9999  -2.5447   0.0000   0.0000   0.0000   0.3318
  14.000   1.0134   0.19586   0.19064  -0.1031  0.1309  0.9999  -2.1628   0.0000   0.0000   0.0000   0.3397
  15.000   1.0005   0.20862   0.20326  -0.1188  0.1197  0.9999  -1.9292   0.0000   0.0000   0.0000   0.3555
  16.000   1.0275   0.22645   0.22108  -0.1260  0.1121  0.9999  -1.9394   0.0000   0.0000   0.0000   0.3582
  17.000   1.0707   0.24857   0.24327  -0.1293  0.0977  0.9999  -2.1026   0.0000   0.0000   0.0000   0.3549
  18.000   1.0827   0.25622   0.25085  -0.1442  0.0868  0.9999  -1.9843   0.0000   0.0000   0.0000   0.3658
  19.000   1.1200   0.27658   0.27131  -0.1499  0.0811  0.9999  -2.1094   0.0000   0.0000   0.0000   0.3649
  20.000   1.1464   0.28652   0.28124  -0.1628  0.0709  0.9999  -2.0388   0.0000   0.0000   0.0000   0.3713
  21.000   1.1812   0.30509   0.29983  -0.1700  0.0651  0.9999  -2.0926   0.0000   0.0000   0.0000   0.3715
  22.000   1.2118   0.31559   0.31035  -0.1827  0.0565  0.9999  -2.0323   0.0000   0.0000   0.0000   0.3764
  23.000   1.2545   0.34925   0.34412  -0.1844  0.0511  0.9999  -2.3543   0.0000   0.0000   0.0000   0.3707
  24.000   1.2773   0.34454   0.33942  -0.2029  0.0483  0.9999  -2.1568   0.0000   0.0000   0.0000   0.3803
  25.000   1.3096   0.35731   0.35225  -0.2134  0.0410  0.9999  -2.2075   0.0000   0.0000   0.0000   0.3822
  26.000   1.3463   0.39552   0.39058  -0.2155  0.0371  0.9999  -2.4673   0.0000   0.0000   0.0000   0.3772
  27.000   1.3711   0.38758   0.38261  -0.2329  0.0362  0.9999  -2.2549   0.0000   0.0000   0.0000   0.3843
  28.000   1.4024   0.39471   0.38979  -0.2466  0.0322  0.9999  -2.1417   0.0000   0.0000   0.0000   0.3876
  29.000   1.4310   0.40596   0.40118  -0.2573  0.0281  0.9999  -2.1564   0.0000   0.0000   0.0000   0.3888


