xflr5 v6.61

 Calculated polar for: TJ1_8_00

 1 1 Reynolds number fixed          Mach number fixed         

 xtrf =   1.000 (top)        1.000 (bottom)
 Mach =   0.200     Re =     0.025 e 6     Ncrit =   9.000

  alpha     CL        CD       CDp       Cm    Top Xtr Bot Xtr   Cpmin    Chinge    XCp    
 ------- -------- --------- --------- -------- ------- ------- -------- --------- ---------
 -30.000  -1.0793   0.38847   0.37818   0.1512  1.0001  0.0705  -1.8192   0.0000   0.0000   0.0000   0.3628
 -29.000  -1.0513   0.38305   0.37276   0.1393  1.0001  0.0724  -1.8106   0.0000   0.0000   0.0000   0.3575
 -28.000  -1.0191   0.35995   0.34950   0.1313  1.0001  0.0785  -1.6908   0.0000   0.0000   0.0000   0.3556
 -27.000  -0.9874   0.35017   0.33956   0.1207  1.0001  0.0848  -1.6546   0.0000   0.0000   0.0000   0.3510
 -26.000  -0.9586   0.35329   0.34267   0.1078  1.0001  0.0882  -1.7021   0.0000   0.0000   0.0000   0.3433
 -25.000  -0.9213   0.32666   0.31596   0.1007  1.0001  0.0937  -1.6109   0.0000   0.0000   0.0000   0.3414
 -24.000  -0.8871   0.31591   0.30506   0.0910  1.0001  0.1021  -1.5703   0.0000   0.0000   0.0000   0.3362
 -23.000  -0.8548   0.30789   0.29708   0.0805  1.0001  0.1070  -1.5504   0.0000   0.0000   0.0000   0.3294
 -22.000  -0.8170   0.29162   0.28073   0.0728  1.0001  0.1186  -1.4850   0.0000   0.0000   0.0000   0.3255
 -21.000  -0.7838   0.28163   0.27078   0.0634  1.0001  0.1248  -1.4909   0.0000   0.0000   0.0000   0.3185
 -20.000  -0.7470   0.26834   0.25746   0.0556  1.0001  0.1373  -1.4484   0.0000   0.0000   0.0000   0.3132
 -19.000  -0.7099   0.25368   0.24273   0.0482  1.0001  0.1466  -1.4014   0.0000   0.0000   0.0000   0.3075
 -18.000  -0.6853   0.24993   0.23910   0.0390  1.0001  0.1574  -1.4095   0.0000   0.0000   0.0000   0.2978
 -17.000  -0.6468   0.23333   0.22249   0.0330  1.0001  0.1735  -1.3378   0.0000   0.0000   0.0000   0.2925
 -16.000  -0.6128   0.21954   0.20876   0.0270  1.0001  0.1905  -1.3316   0.0000   0.0000   0.0000   0.2863
 -15.000  -0.5892   0.21033   0.19957   0.0211  1.0001  0.2091  -1.3474   0.0000   0.0000   0.0000   0.2787
 -14.000  -0.5433   0.18999   0.17928   0.0174  1.0001  0.2341  -1.2794   0.0000   0.0000   0.0000   0.2752
 -13.000  -0.5217   0.17973   0.16914   0.0131  1.0001  0.2600  -1.2733   0.0000   0.0000   0.0000   0.2688
 -12.000  -0.4869   0.16413   0.15365   0.0102  1.0001  0.2904  -1.2189   0.0000   0.0000   0.0000   0.2649
 -11.000  -0.4625   0.15143   0.14104   0.0080  1.0001  0.3274  -1.1800   0.0000   0.0000   0.0000   0.2617
 -10.000  -0.4364   0.13815   0.12793   0.0075  1.0001  0.3803  -1.1883   0.0000   0.0000   0.0000   0.2618
  -9.000  -0.4115   0.12524   0.11523   0.0090  1.0001  0.4520  -1.2068   0.0000   0.0000   0.0000   0.2667
  -8.000  -0.3696   0.10950   0.09962   0.0113  1.0001  0.5445  -1.2056   0.0000   0.0000   0.0000   0.2755
  -7.000  -0.3021   0.09184   0.08203   0.0155  1.0001  0.7303  -1.1713   0.0000   0.0000   0.0000   0.2955
  -6.000  -0.0895   0.05977   0.04943  -0.0174  1.0001  0.9999  -1.0624   0.0000   0.0000   0.0000   0.0383
  -5.000  -0.3036   0.07302   0.06402   0.0140  1.0001  0.6359  -1.3089   0.0000   0.0000   0.0000   0.2923
  -4.000  -0.3091   0.05788   0.04884  -0.0345  1.0001  0.2746  -1.7705   0.0000   0.0000   0.0000   0.1360
  -3.000  -0.1830   0.04033   0.02985  -0.0534  1.0001  0.2981  -1.7954   0.0000   0.0000   0.0000  -0.0450
  -2.000  -0.0707   0.03035   0.01931  -0.0524  1.0001  0.5064  -1.5820   0.0000   0.0000   0.0000  -0.4988
  -1.000   0.0474   0.02312   0.01172  -0.0527  1.0001  0.9999  -1.1759   0.0000   0.0000   0.0000   1.3680
   0.000   0.1577   0.02433   0.01091  -0.0557  1.0001  0.9999  -0.6243   0.0000   0.0000   0.0000   0.6024
   1.000   0.2523   0.02638   0.01213  -0.0565  1.0001  0.9999  -0.5574   0.0000   0.0000   0.0000   0.4722
   2.000   0.3353   0.02975   0.01525  -0.0580  1.0001  0.9999  -0.6616   0.0000   0.0000   0.0000   0.4203
   3.000   0.4014   0.03546   0.02108  -0.0615  1.0001  0.9999  -0.7498   0.0000   0.0000   0.0000   0.3998
   4.000   0.5897   0.04646   0.03279  -0.0902  0.8847  0.9999  -0.9475   0.0000   0.0000   0.0000   0.3991
   5.000   0.7730   0.05297   0.04026  -0.1010  0.7122  0.9999  -1.2055   0.0000   0.0000   0.0000   0.3763
   6.000   0.8728   0.06098   0.04903  -0.0985  0.6028  0.9999  -1.4395   0.0000   0.0000   0.0000   0.3578
   7.000   0.8991   0.07567   0.06409  -0.0973  0.5393  0.9999  -1.5690   0.0000   0.0000   0.0000   0.3525
   8.000   0.8952   0.09391   0.08255  -0.0992  0.5063  0.9999  -1.6703   0.0000   0.0000   0.0000   0.3543
   9.000   0.8716   0.11528   0.10407  -0.1066  0.5290  0.9999  -1.6301   0.0000   0.0000   0.0000   0.3649
  10.000   0.7896   0.13613   0.12484  -0.1209  0.7524  0.9999  -1.3328   0.0000   0.0000   0.0000   0.3944
  11.000   0.8340   0.15277   0.14193  -0.1226  0.6669  0.9999  -1.5451   0.0000   0.0000   0.0000   0.3875
  12.000   0.8626   0.16764   0.15721  -0.1230  0.5933  0.9999  -1.6834   0.0000   0.0000   0.0000   0.3821
  13.000   0.8986   0.18442   0.17431  -0.1248  0.5247  0.9999  -1.7913   0.0000   0.0000   0.0000   0.3775
  14.000   0.9295   0.19985   0.19000  -0.1264  0.4526  0.9999  -1.8200   0.0000   0.0000   0.0000   0.3735
  15.000   0.9713   0.21972   0.21016  -0.1290  0.3881  0.9999  -1.8430   0.0000   0.0000   0.0000   0.3693
  16.000   1.0041   0.23646   0.22700  -0.1328  0.3375  0.9999  -1.8181   0.0000   0.0000   0.0000   0.3675
  17.000   1.0348   0.25231   0.24286  -0.1383  0.3015  0.9999  -1.7833   0.0000   0.0000   0.0000   0.3675
  18.000   1.0702   0.26961   0.26022  -0.1440  0.2674  0.9999  -1.8190   0.0000   0.0000   0.0000   0.3670
  19.000   1.0932   0.27810   0.26870  -0.1529  0.2465  0.9999  -1.8067   0.0000   0.0000   0.0000   0.3706
  20.000   1.1254   0.29132   0.28207  -0.1612  0.2245  0.9999  -1.8228   0.0000   0.0000   0.0000   0.3721
  21.000   1.1612   0.30695   0.29779  -0.1688  0.2024  0.9999  -1.9076   0.0000   0.0000   0.0000   0.3725
  22.000   1.1937   0.32016   0.31106  -0.1780  0.1865  0.9999  -1.9494   0.0000   0.0000   0.0000   0.3743
  23.000   1.2259   0.33310   0.32406  -0.1877  0.1732  0.9999  -1.9696   0.0000   0.0000   0.0000   0.3762
  24.000   1.2590   0.34712   0.33826  -0.1971  0.1596  0.9999  -1.9877   0.0000   0.0000   0.0000   0.3775
  25.000   1.2936   0.36555   0.35680  -0.2054  0.1465  0.9999  -2.0934   0.0000   0.0000   0.0000   0.3776
  26.000   1.3243   0.37568   0.36705  -0.2159  0.1335  0.9999  -2.1459   0.0000   0.0000   0.0000   0.3794
  27.000   1.3533   0.38550   0.37692  -0.2275  0.1261  0.9999  -2.1566   0.0000   0.0000   0.0000   0.3818
  28.000   1.3876   0.41538   0.40706  -0.2339  0.1143  0.9999  -2.2590   0.0000   0.0000   0.0000   0.3799
  29.000   1.4119   0.40753   0.39927  -0.2491  0.1065  0.9999  -2.1892   0.0000   0.0000   0.0000   0.3847


