xflr5 v6.61

 Calculated polar for: TJ1_7_00

 1 1 Reynolds number fixed          Mach number fixed         

 xtrf =   1.000 (top)        1.000 (bottom)
 Mach =   0.200     Re =     0.100 e 6     Ncrit =   9.000

  alpha     CL        CD       CDp       Cm    Top Xtr Bot Xtr   Cpmin    Chinge    XCp    
 ------- -------- --------- --------- -------- ------- ------- -------- --------- ---------
 -25.000  -0.9410   0.32560   0.32028   0.1095  1.0001  0.0182  -1.7446   0.0000   0.0000   0.0000   0.3499
 -24.000  -0.9072   0.31245   0.30704   0.1005  1.0001  0.0197  -1.6519   0.0000   0.0000   0.0000   0.3458
 -23.000  -0.8720   0.29998   0.29454   0.0910  1.0001  0.0215  -1.6125   0.0000   0.0000   0.0000   0.3408
 -22.000  -0.8358   0.28743   0.28197   0.0815  1.0001  0.0235  -1.5777   0.0000   0.0000   0.0000   0.3352
 -21.000  -0.7985   0.27661   0.27113   0.0712  1.0001  0.0257  -1.5767   0.0000   0.0000   0.0000   0.3281
 -20.000  -0.7677   0.27381   0.26836   0.0590  1.0001  0.0266  -1.6566   0.0000   0.0000   0.0000   0.3170
 -19.000  -0.7274   0.24902   0.24352   0.0540  1.0001  0.0284  -1.5647   0.0000   0.0000   0.0000   0.3150
 -18.000  -0.6909   0.23498   0.22947   0.0470  1.0001  0.0314  -1.4967   0.0000   0.0000   0.0000   0.3097
 -17.000  -0.6550   0.22179   0.21629   0.0392  1.0001  0.0350  -1.4790   0.0000   0.0000   0.0000   0.3025
 -16.000  -0.6221   0.21135   0.20587   0.0300  1.0001  0.0387  -1.5262   0.0000   0.0000   0.0000   0.2915
 -15.000  -0.6055   0.20678   0.20137   0.0195  1.0001  0.0396  -1.6489   0.0000   0.0000   0.0000   0.2764
 -14.000  -0.5583   0.18146   0.17603   0.0175  1.0001  0.0426  -1.4228   0.0000   0.0000   0.0000   0.2757
 -13.000  -0.5271   0.16768   0.16227   0.0125  1.0001  0.0483  -1.3643   0.0000   0.0000   0.0000   0.2686
 -12.000  -0.5161   0.16054   0.15523   0.0023  1.0001  0.0547  -1.5649   0.0000   0.0000   0.0000   0.2501
 -11.000  -0.4789   0.14066   0.13541   0.0005  1.0001  0.0588  -1.4993   0.0000   0.0000   0.0000   0.2467
 -10.000  -0.4532   0.12744   0.12221  -0.0042  1.0001  0.0672  -1.4857   0.0000   0.0000   0.0000   0.2370
  -9.000  -0.4567   0.12063   0.11563  -0.0185  1.0001  0.0716  -1.7649   0.0000   0.0000   0.0000   0.2064
  -8.000  -0.4097   0.10108   0.09612  -0.0146  1.0001  0.0813  -1.4748   0.0000   0.0000   0.0000   0.2112
  -7.000  -0.4101   0.08989   0.08525  -0.0278  1.0001  0.0896  -1.6575   0.0000   0.0000   0.0000   0.1798
  -6.000  -0.3817   0.07793   0.07332  -0.0414  1.0001  0.1053  -1.6813   0.0000   0.0000   0.0000   0.1398
  -5.000  -0.3452   0.06263   0.05804  -0.0428  1.0001  0.1239  -1.5530   0.0000   0.0000   0.0000   0.1245
  -4.000  -0.2852   0.04967   0.04503  -0.0444  1.0001  0.1494  -1.4494   0.0000   0.0000   0.0000   0.0929
  -3.000  -0.1093   0.02362   0.01586  -0.0679  1.0001  0.0619  -2.1395   0.0000   0.0000   0.0000  -0.3758
  -2.000   0.0235   0.01695   0.00821  -0.0704  1.0001  0.0957  -1.9201   0.0000   0.0000   0.0000   3.2666
  -1.000   0.1261   0.01260   0.00678  -0.0675  1.0001  0.9999  -1.2751   0.0000   0.0000   0.0000   0.7864
   0.000   0.2332   0.01385   0.00702  -0.0686  1.0001  0.9999  -0.6063   0.0000   0.0000   0.0000   0.5436
   1.000   0.4182   0.01522   0.00796  -0.0844  0.9606  0.9999  -0.6425   0.0000   0.0000   0.0000   0.4503
   2.000   0.6002   0.01463   0.00748  -0.0947  0.8910  0.9999  -0.8762   0.0000   0.0000   0.0000   0.4055
   3.000   0.7209   0.01324   0.00618  -0.0897  0.7772  0.9999  -1.1054   0.0000   0.0000   0.0000   0.3715
   4.000   0.8220   0.01411   0.00618  -0.0823  0.5585  0.9999  -1.3904   0.0000   0.0000   0.0000   0.3464
   5.000   0.9182   0.01715   0.00831  -0.0778  0.3869  0.9999  -2.0373   0.0000   0.0000   0.0000   0.3301
   6.000   1.0183   0.02047   0.01149  -0.0748  0.2881  0.9999  -2.8569   0.0000   0.0000   0.0000   0.3177
   7.000   1.1108   0.02352   0.01462  -0.0710  0.1981  0.9999  -3.7831   0.0000   0.0000   0.0000   0.3070
   8.000   1.1811   0.02808   0.01931  -0.0648  0.0678  0.9999  -4.4962   0.0000   0.0000   0.0000   0.2966
   9.000   1.2477   0.03932   0.03141  -0.0571  0.0472  0.9999  -4.8186   0.0000   0.0000   0.0000   0.2864
  10.000   1.2633   0.05486   0.04877  -0.0478  0.0449  0.9999  -4.9854   0.0000   0.0000   0.0000   0.2775
  11.000   1.1873   0.07312   0.06823  -0.0422  0.0457  0.9999  -4.7275   0.0000   0.0000   0.0000   0.2741
  12.000   1.0791   0.10920   0.10486  -0.0659  0.0487  0.9999  -3.9578   0.0000   0.0000   0.0000   0.2987
  13.000   0.9987   0.15628   0.15174  -0.0928  0.0588  0.9999  -2.6736   0.0000   0.0000   0.0000   0.3310
  14.000   0.9944   0.18808   0.18350  -0.1072  0.1007  0.9999  -2.1029   0.0000   0.0000   0.0000   0.3456
  15.000   1.0126   0.20806   0.20344  -0.1151  0.0967  0.9999  -2.0666   0.0000   0.0000   0.0000   0.3503
  16.000   0.7548   0.18780   0.18352  -0.0806  0.0973  0.9999  -1.4632   0.0000   0.0000   0.0000   0.3448
  17.000   0.7497   0.19750   0.19329  -0.0873  0.0853  0.9999  -1.3516   0.0000   0.0000   0.0000   0.3535
  18.000   0.7572   0.21098   0.20678  -0.0927  0.0778  0.9999  -1.2814   0.0000   0.0000   0.0000   0.3584
  19.000   0.7758   0.22457   0.22044  -0.0961  0.0681  0.9999  -1.3792   0.0000   0.0000   0.0000   0.3585
  20.000   0.7856   0.23952   0.23541  -0.1014  0.0648  0.9999  -1.3410   0.0000   0.0000   0.0000   0.3624
  21.000   0.7943   0.25171   0.24766  -0.1071  0.0555  0.9999  -1.2859   0.0000   0.0000   0.0000   0.3670
  22.000   0.8174   0.27144   0.26748  -0.1097  0.0507  0.9999  -1.3630   0.0000   0.0000   0.0000   0.3646
  23.000   0.8174   0.28082   0.27690  -0.1172  0.0458  0.9999  -1.1945   0.0000   0.0000   0.0000   0.3725
  24.000   0.8305   0.29535   0.29151  -0.1216  0.0399  0.9999  -1.2636   0.0000   0.0000   0.0000   0.3738
  25.000   0.8483   0.31610   0.31230  -0.1248  0.0368  0.9999  -1.3667   0.0000   0.0000   0.0000   0.3726
  26.000   0.8502   0.32616   0.32246  -0.1319  0.0340  0.9999  -1.2131   0.0000   0.0000   0.0000   0.3789
  27.000   0.8597   0.34138   0.33776  -0.1368  0.0294  0.9999  -1.1782   0.0000   0.0000   0.0000   0.3809
  28.000   0.8708   0.35766   0.35414  -0.1407  0.0260  0.9999  -1.2231   0.0000   0.0000   0.0000   0.3811
  29.000   0.8798   0.37736   0.37387  -0.1450  0.0248  0.9999  -1.1743   0.0000   0.0000   0.0000   0.3821
  30.000   0.8826   0.38895   0.38557  -0.1514  0.0225  0.9999  -1.0334   0.0000   0.0000   0.0000   0.3866


