xflr5 v6.61

 Calculated polar for: TJ1_10_00

 1 1 Reynolds number fixed          Mach number fixed         

 xtrf =   1.000 (top)        1.000 (bottom)
 Mach =   0.200     Re =     0.100 e 6     Ncrit =   9.000

  alpha     CL        CD       CDp       Cm    Top Xtr Bot Xtr   Cpmin    Chinge    XCp    
 ------- -------- --------- --------- -------- ------- ------- -------- --------- ---------
 -25.000  -0.8920   0.31753   0.31197   0.0980  1.0001  0.0289  -1.6779   0.0000   0.0000   0.0000   0.3376
 -24.000  -0.8565   0.30528   0.29969   0.0889  1.0001  0.0318  -1.6042   0.0000   0.0000   0.0000   0.3332
 -23.000  -0.8201   0.29313   0.28747   0.0794  1.0001  0.0348  -1.5804   0.0000   0.0000   0.0000   0.3277
 -22.000  -0.7831   0.28249   0.27681   0.0688  1.0001  0.0383  -1.5928   0.0000   0.0000   0.0000   0.3202
 -21.000  -0.7534   0.28005   0.27439   0.0561  1.0001  0.0395  -1.6742   0.0000   0.0000   0.0000   0.3083
 -20.000  -0.7207   0.26601   0.26041   0.0466  1.0001  0.0401  -1.6798   0.0000   0.0000   0.0000   0.2996
 -19.000  -0.6729   0.24197   0.23628   0.0437  1.0001  0.0446  -1.4588   0.0000   0.0000   0.0000   0.3007
 -18.000  -0.6356   0.22917   0.22348   0.0359  1.0001  0.0497  -1.4389   0.0000   0.0000   0.0000   0.2932
 -17.000  -0.6058   0.22080   0.21514   0.0252  1.0001  0.0544  -1.5286   0.0000   0.0000   0.0000   0.2793
 -16.000  -0.5935   0.21655   0.21098   0.0143  1.0001  0.0552  -1.6644   0.0000   0.0000   0.0000   0.2630
 -15.000  -0.5337   0.18921   0.18358   0.0135  1.0001  0.0592  -1.3919   0.0000   0.0000   0.0000   0.2643
 -14.000  -0.5003   0.17604   0.17045   0.0077  1.0001  0.0656  -1.3083   0.0000   0.0000   0.0000   0.2552
 -13.000  -0.4970   0.16923   0.16375  -0.0034  1.0001  0.0713  -1.5093   0.0000   0.0000   0.0000   0.2338
 -12.000  -0.4500   0.14876   0.14332  -0.0047  1.0001  0.0755  -1.4183   0.0000   0.0000   0.0000   0.2303
 -11.000  -0.4268   0.13607   0.13071  -0.0102  1.0001  0.0858  -1.4654   0.0000   0.0000   0.0000   0.2176
 -10.000  -0.4039   0.12169   0.11641  -0.0145  1.0001  0.0942  -1.5155   0.0000   0.0000   0.0000   0.2061
  -8.000  -0.3927   0.09716   0.09228  -0.0282  1.0001  0.1216  -1.7598   0.0000   0.0000   0.0000   0.1719
  -7.000  -0.3859   0.08389   0.07926  -0.0249  1.0001  0.1285  -1.7627   0.0000   0.0000   0.0000   0.1800
  -6.000  -0.4319   0.04946   0.04444  -0.0524  1.0001  0.0688  -2.8750   0.0000   0.0000   0.0000   0.1234
  -5.000  -0.3536   0.02930   0.02227  -0.0630  1.0001  0.0768  -2.9985   0.0000   0.0000   0.0000   0.0659
  -4.000  -0.2407   0.02226   0.01402  -0.0648  1.0001  0.1179  -2.5241   0.0000   0.0000   0.0000  -0.0260
  -3.000  -0.1306   0.01987   0.01143  -0.0653  1.0001  0.1954  -1.9276   0.0000   0.0000   0.0000  -0.2588
  -2.000  -0.0243   0.01874   0.01046  -0.0658  1.0001  0.2861  -1.3234   0.0000   0.0000   0.0000  -2.4865
  -1.000   0.1542   0.01793   0.01048  -0.0796  0.9753  0.4816  -0.7102   0.0000   0.0000   0.0000   0.7676
   0.000   0.3229   0.01624   0.00992  -0.0866  0.9193  0.9999  -0.6614   0.0000   0.0000   0.0000   0.5170
   1.000   0.4875   0.01509   0.00838  -0.0921  0.8572  0.9999  -0.8555   0.0000   0.0000   0.0000   0.4367
   2.000   0.6088   0.01382   0.00681  -0.0880  0.7617  0.9999  -1.0405   0.0000   0.0000   0.0000   0.3914
   3.000   0.7172   0.01419   0.00634  -0.0827  0.6086  0.9999  -1.2380   0.0000   0.0000   0.0000   0.3613
   4.000   0.8187   0.01630   0.00747  -0.0787  0.4649  0.9999  -1.4430   0.0000   0.0000   0.0000   0.3412
   5.000   0.9225   0.01889   0.00951  -0.0762  0.3765  0.9999  -1.6816   0.0000   0.0000   0.0000   0.3266
   6.000   1.0275   0.02182   0.01222  -0.0742  0.3178  0.9999  -1.9741   0.0000   0.0000   0.0000   0.3151
   7.000   1.1302   0.02511   0.01566  -0.0719  0.2722  0.9999  -2.3641   0.0000   0.0000   0.0000   0.3054
   8.000   1.2296   0.02908   0.01992  -0.0693  0.2348  0.9999  -3.0692   0.0000   0.0000   0.0000   0.2969
   9.000   1.3204   0.03344   0.02462  -0.0657  0.1987  0.9999  -3.8009   0.0000   0.0000   0.0000   0.2889
  10.000   1.3971   0.03804   0.02987  -0.0604  0.1649  0.9999  -4.5130   0.0000   0.0000   0.0000   0.2809
  11.000   1.4506   0.04209   0.03446  -0.0528  0.1309  0.9999  -5.1682   0.0000   0.0000   0.0000   0.2724
  12.000   1.4466   0.04774   0.04104  -0.0405  0.1036  0.9999  -5.5522   0.0000   0.0000   0.0000   0.2624
  13.000   1.1650   0.10190   0.09711  -0.0566  0.1246  0.9999  -4.0193   0.0000   0.0000   0.0000   0.2824
  16.000   1.0118   0.20010   0.19515  -0.1098  0.0905  0.9999  -2.4426   0.0000   0.0000   0.0000   0.3406
  17.000   1.0197   0.22539   0.22045  -0.1236  0.1036  0.9999  -2.0447   0.0000   0.0000   0.0000   0.3525
  18.000   1.0563   0.24450   0.23964  -0.1288  0.0971  0.9999  -2.0737   0.0000   0.0000   0.0000   0.3516
  19.000   1.0758   0.25774   0.25288  -0.1418  0.0861  0.9999  -1.9447   0.0000   0.0000   0.0000   0.3598
  20.000   1.1252   0.28250   0.27773  -0.1435  0.0817  0.9999  -2.1334   0.0000   0.0000   0.0000   0.3537
  21.000   1.1366   0.28815   0.28333  -0.1619  0.0729  0.9999  -1.9267   0.0000   0.0000   0.0000   0.3668
  22.000   1.1879   0.31671   0.31207  -0.1615  0.0662  0.9999  -2.2649   0.0000   0.0000   0.0000   0.3582
  23.000   1.2012   0.31718   0.31247  -0.1816  0.0625  0.9999  -2.0313   0.0000   0.0000   0.0000   0.3713
  24.000   1.2342   0.33029   0.32565  -0.1913  0.0549  0.9999  -2.1108   0.0000   0.0000   0.0000   0.3728
  25.000   1.2727   0.35711   0.35255  -0.1948  0.0509  0.9999  -2.3384   0.0000   0.0000   0.0000   0.3685
  26.000   1.2964   0.35765   0.35308  -0.2132  0.0466  0.9999  -2.1818   0.0000   0.0000   0.0000   0.3774
  27.000   1.3277   0.36951   0.36501  -0.2234  0.0405  0.9999  -2.2820   0.0000   0.0000   0.0000   0.3784
  28.000   1.3617   0.40261   0.39826  -0.2263  0.0371  0.9999  -2.5455   0.0000   0.0000   0.0000   0.3736
  29.000   1.3861   0.39541   0.39105  -0.2445  0.0359  0.9999  -2.3325   0.0000   0.0000   0.0000   0.3809
  30.000   1.4152   0.40446   0.40016  -0.2577  0.0310  0.9999  -2.2498   0.0000   0.0000   0.0000   0.3835


