xflr5 v6.61

 Calculated polar for: TJ1_8_00

 1 1 Reynolds number fixed          Mach number fixed         

 xtrf =   1.000 (top)        1.000 (bottom)
 Mach =   0.200     Re =     0.125 e 6     Ncrit =   9.000

  alpha     CL        CD       CDp       Cm    Top Xtr Bot Xtr   Cpmin    Chinge    XCp    
 ------- -------- --------- --------- -------- ------- ------- -------- --------- ---------
 -18.000  -0.6745   0.23265   0.22767   0.0431  1.0001  0.0290  -1.5651   0.0000   0.0000   0.0000   0.3041
 -17.000  -0.6382   0.21923   0.21425   0.0362  1.0001  0.0318  -1.4573   0.0000   0.0000   0.0000   0.2977
 -16.000  -0.6033   0.20602   0.20106   0.0287  1.0001  0.0356  -1.3943   0.0000   0.0000   0.0000   0.2894
 -15.000  -0.5770   0.19751   0.19256   0.0184  1.0001  0.0392  -1.5332   0.0000   0.0000   0.0000   0.2744
 -14.000  -0.5492   0.18096   0.17608   0.0118  1.0001  0.0408  -1.6227   0.0000   0.0000   0.0000   0.2645
 -13.000  -0.5106   0.16486   0.15999   0.0093  1.0001  0.0461  -1.4633   0.0000   0.0000   0.0000   0.2617
 -12.000  -0.4844   0.15180   0.14696   0.0031  1.0001  0.0520  -1.4807   0.0000   0.0000   0.0000   0.2503
 -11.000  -0.4796   0.14365   0.13894  -0.0087  1.0001  0.0550  -1.6969   0.0000   0.0000   0.0000   0.2266
 -10.000  -0.4402   0.12391   0.11921  -0.0086  1.0001  0.0588  -1.4920   0.0000   0.0000   0.0000   0.2254
  -9.000  -0.4145   0.11089   0.10628  -0.0130  1.0001  0.0661  -1.4022   0.0000   0.0000   0.0000   0.2139
  -8.000  -0.4226   0.10149   0.09714  -0.0291  1.0001  0.0716  -1.6871   0.0000   0.0000   0.0000   0.1774
  -7.000  -0.3871   0.08538   0.08114  -0.0232  1.0001  0.0790  -1.5012   0.0000   0.0000   0.0000   0.1866
  -6.000  -0.3923   0.07128   0.06722  -0.0406  1.0001  0.0895  -1.8064   0.0000   0.0000   0.0000   0.1438
  -5.000  -0.3595   0.05916   0.05513  -0.0381  1.0001  0.1005  -1.6996   0.0000   0.0000   0.0000   0.1416
  -4.000  -0.2542   0.01181   0.00623  -0.0557  1.0001  0.0463  -2.4715   0.0000   0.0000   0.0000   0.0284
  -3.000  -0.1030   0.01869   0.01065  -0.0681  1.0001  0.0667  -2.3750   0.0000   0.0000   0.0000  -0.4190
  -2.000   0.0229   0.01518   0.00744  -0.0710  1.0001  0.2286  -1.7451   0.0000   0.0000   0.0000   3.3771
  -1.000   0.1391   0.01388   0.00743  -0.0732  1.0001  0.5488  -1.0146   0.0000   0.0000   0.0000   0.7776
   0.000   0.3206   0.01340   0.00733  -0.0854  0.9591  0.9999  -0.5647   0.0000   0.0000   0.0000   0.5155
   1.000   0.4937   0.01293   0.00659  -0.0947  0.9061  0.9999  -0.7596   0.0000   0.0000   0.0000   0.4400
   2.000   0.6151   0.01190   0.00549  -0.0916  0.8261  0.9999  -0.9470   0.0000   0.0000   0.0000   0.3964
   3.000   0.7233   0.01169   0.00479  -0.0859  0.6786  0.9999  -1.1560   0.0000   0.0000   0.0000   0.3655
   4.000   0.8213   0.01362   0.00563  -0.0808  0.4792  0.9999  -1.3851   0.0000   0.0000   0.0000   0.3443
   5.000   0.9211   0.01621   0.00754  -0.0778  0.3557  0.9999  -1.7266   0.0000   0.0000   0.0000   0.3293
   6.000   1.0235   0.01895   0.01014  -0.0753  0.2810  0.9999  -2.4620   0.0000   0.0000   0.0000   0.3174
   7.000   1.1234   0.02183   0.01316  -0.0725  0.2209  0.9999  -3.2811   0.0000   0.0000   0.0000   0.3072
   8.000   1.2133   0.02430   0.01602  -0.0686  0.1584  0.9999  -4.1418   0.0000   0.0000   0.0000   0.2979
   9.000   1.2865   0.02761   0.01963  -0.0630  0.0718  0.9999  -4.9883   0.0000   0.0000   0.0000   0.2888
  10.000   1.3254   0.03686   0.02938  -0.0531  0.0421  0.9999  -5.3473   0.0000   0.0000   0.0000   0.2786
  11.000   1.3345   0.04982   0.04327  -0.0430  0.0375  0.9999  -5.5632   0.0000   0.0000   0.0000   0.2694
  12.000   1.2809   0.06661   0.06120  -0.0373  0.0370  0.9999  -5.4528   0.0000   0.0000   0.0000   0.2650
  13.000   1.2036   0.09167   0.08718  -0.0485  0.0375  0.9999  -5.1357   0.0000   0.0000   0.0000   0.2747
  14.000   1.0287   0.15871   0.15461  -0.0925  0.0456  0.9999  -3.1338   0.0000   0.0000   0.0000   0.3253
  15.000   1.0213   0.18525   0.18106  -0.1041  0.0498  0.9999  -2.7031   0.0000   0.0000   0.0000   0.3366


