xflr5 v6.61

 Calculated polar for: TJ1_8_00

 1 1 Reynolds number fixed          Mach number fixed         

 xtrf =   1.000 (top)        1.000 (bottom)
 Mach =   0.200     Re =     0.500 e 6     Ncrit =   9.000

  alpha     CL        CD       CDp       Cm    Top Xtr Bot Xtr   Cpmin    Chinge    XCp    
 ------- -------- --------- --------- -------- ------- ------- -------- --------- ---------
 -22.000  -0.5153   0.22690   0.22475   0.0309  1.0001  0.0070  -1.0376   0.0000   0.0000   0.0000   0.3028
 -21.000  -0.4940   0.21616   0.21397   0.0255  1.0001  0.0076  -0.9935   0.0000   0.0000   0.0000   0.2953
 -20.000  -0.4723   0.20536   0.20315   0.0201  1.0001  0.0089  -1.0125   0.0000   0.0000   0.0000   0.2869
 -19.000  -0.4506   0.19501   0.19279   0.0142  1.0001  0.0106  -1.1578   0.0000   0.0000   0.0000   0.2762
 -18.000  -0.4323   0.18553   0.18330   0.0082  1.0001  0.0108  -1.2465   0.0000   0.0000   0.0000   0.2640
 -17.000  -0.4121   0.17536   0.17312   0.0029  1.0001  0.0109  -1.2520   0.0000   0.0000   0.0000   0.2524
 -16.000  -0.3905   0.16263   0.16038  -0.0012  1.0001  0.0113  -1.2490   0.0000   0.0000   0.0000   0.2424
 -15.000  -0.3671   0.15290   0.15065  -0.0049  1.0001  0.0122  -1.1548   0.0000   0.0000   0.0000   0.2327
 -14.000  -0.3480   0.14352   0.14128  -0.0089  1.0001  0.0137  -1.1672   0.0000   0.0000   0.0000   0.2206
 -13.000  -0.3386   0.13516   0.13292  -0.0134  1.0001  0.0168  -1.3657   0.0000   0.0000   0.0000   0.2063
 -12.000  -0.3343   0.12633   0.12409  -0.0171  1.0001  0.0172  -1.4959   0.0000   0.0000   0.0000   0.1947
 -11.000  -0.3304   0.11097   0.10874  -0.0210  1.0001  0.0179  -1.6625   0.0000   0.0000   0.0000   0.1820
 -10.000  -0.3106   0.09827   0.09607  -0.0229  1.0001  0.0192  -1.4691   0.0000   0.0000   0.0000   0.1723
  -9.000  -0.2986   0.08463   0.08247  -0.0259  1.0001  0.0206  -1.3902   0.0000   0.0000   0.0000   0.1594
  -5.000  -0.2272   0.01930   0.01493  -0.0848  0.9824  0.0144  -3.4266   0.0000   0.0000   0.0000  -0.1297
  -4.000  -0.0717   0.01171   0.00605  -0.0935  0.9763  0.0152  -3.0325   0.0000   0.0000   0.0000  -1.0707
  -3.000   0.0723   0.00916   0.00324  -0.0987  0.9613  0.0429  -2.1731   0.0000   0.0000   0.0000   1.6271
  -2.000   0.1879   0.00787   0.00245  -0.0979  0.9330  0.1985  -1.2267   0.0000   0.0000   0.0000   0.7731
  -1.000   0.2960   0.00689   0.00198  -0.0954  0.8965  0.3918  -0.5995   0.0000   0.0000   0.0000   0.5724
   0.000   0.4012   0.00561   0.00180  -0.0921  0.8419  0.7980  -0.6349   0.0000   0.0000   0.0000   0.4787
   1.000   0.5066   0.00555   0.00152  -0.0883  0.7345  0.9999  -0.7855   0.0000   0.0000   0.0000   0.4226
   2.000   0.6158   0.00658   0.00174  -0.0866  0.5730  0.9999  -0.9644   0.0000   0.0000   0.0000   0.3881
   3.000   0.7245   0.00791   0.00229  -0.0854  0.4110  0.9999  -1.1770   0.0000   0.0000   0.0000   0.3645
   4.000   0.8338   0.00922   0.00308  -0.0844  0.2995  0.9999  -1.4242   0.0000   0.0000   0.0000   0.3470
   5.000   0.9433   0.01046   0.00407  -0.0833  0.2328  0.9999  -1.8712   0.0000   0.0000   0.0000   0.3331
   6.000   1.0514   0.01178   0.00514  -0.0821  0.1628  0.9999  -2.6996   0.0000   0.0000   0.0000   0.3217
   7.000   1.1576   0.01328   0.00652  -0.0804  0.1080  0.9999  -3.5789   0.0000   0.0000   0.0000   0.3119
   8.000   1.2517   0.01641   0.00925  -0.0771  0.0214  0.9999  -4.5296   0.0000   0.0000   0.0000   0.3028
   9.000   1.3429   0.01964   0.01289  -0.0728  0.0140  0.9999  -5.5180   0.0000   0.0000   0.0000   0.2940
  10.000   1.4163   0.02407   0.01789  -0.0664  0.0125  0.9999  -6.4482   0.0000   0.0000   0.0000   0.2851
  11.000   1.4505   0.03040   0.02486  -0.0557  0.0115  0.9999  -7.1184   0.0000   0.0000   0.0000   0.2752
  12.000   1.4384   0.04026   0.03546  -0.0448  0.0111  0.9999  -7.5419   0.0000   0.0000   0.0000   0.2663
  13.000   1.4020   0.05643   0.05244  -0.0436  0.0110  0.9999  -7.7403   0.0000   0.0000   0.0000   0.2645
  14.000   1.3463   0.08095   0.07768  -0.0544  0.0111  0.9999  -7.6358   0.0000   0.0000   0.0000   0.2720
  15.000   1.2753   0.11209   0.10941  -0.0711  0.0113  0.9999  -7.1970   0.0000   0.0000   0.0000   0.2859
  16.000   1.1894   0.15090   0.14871  -0.0929  0.0118  0.9999  -6.2205   0.0000   0.0000   0.0000   0.3076
  18.000   0.7657   0.19918   0.19727  -0.0891  0.0250  0.9999  -1.6999   0.0000   0.0000   0.0000   0.3506
  19.000   0.7737   0.21452   0.21263  -0.0948  0.0248  0.9999  -1.6115   0.0000   0.0000   0.0000   0.3558
  20.000   0.7812   0.22847   0.22662  -0.1018  0.0199  0.9999  -1.5234   0.0000   0.0000   0.0000   0.3625
  21.000   0.7978   0.23990   0.23808  -0.1055  0.0171  0.9999  -1.7292   0.0000   0.0000   0.0000   0.3627
  22.000   0.8052   0.25707   0.25527  -0.1108  0.0158  0.9999  -1.5718   0.0000   0.0000   0.0000   0.3668
  23.000   0.8145   0.27172   0.26994  -0.1171  0.0119  0.9999  -1.4075   0.0000   0.0000   0.0000   0.3717
  24.000   0.8276   0.28628   0.28452  -0.1208  0.0102  0.9999  -1.5813   0.0000   0.0000   0.0000   0.3718
  25.000   0.8351   0.30201   0.30030  -0.1269  0.0099  0.9999  -1.4611   0.0000   0.0000   0.0000   0.3763
  26.000   0.8452   0.31745   0.31576  -0.1322  0.0074  0.9999  -1.4118   0.0000   0.0000   0.0000   0.3791
  27.000   0.8559   0.33204   0.33040  -0.1361  0.0064  0.9999  -1.5559   0.0000   0.0000   0.0000   0.3793
  28.000   0.8620   0.34911   0.34748  -0.1419  0.0062  0.9999  -1.2703   0.0000   0.0000   0.0000   0.3831
  29.000   0.8701   0.36568   0.36408  -0.1470  0.0050  0.9999  -1.1614   0.0000   0.0000   0.0000   0.3854
  30.000   0.8768   0.38077   0.37922  -0.1518  0.0042  0.9999  -1.2447   0.0000   0.0000   0.0000   0.3872


