xflr5 v6.61

 Calculated polar for: TJ1_9_00

 1 1 Reynolds number fixed          Mach number fixed         

 xtrf =   1.000 (top)        1.000 (bottom)
 Mach =   0.200     Re =     0.060 e 6     Ncrit =   9.000

  alpha     CL        CD       CDp       Cm    Top Xtr Bot Xtr   Cpmin    Chinge    XCp    
 ------- -------- --------- --------- -------- ------- ------- -------- --------- ---------
 -30.000  -1.0681   0.37660   0.36980   0.1530  1.0001  0.0304  -1.8477   0.0000   0.0000   0.0000   0.3633
 -29.000  -1.0380   0.36591   0.35905   0.1423  1.0001  0.0328  -1.7870   0.0000   0.0000   0.0000   0.3594
 -28.000  -1.0063   0.35514   0.34821   0.1315  1.0001  0.0356  -1.7301   0.0000   0.0000   0.0000   0.3551
 -27.000  -0.9730   0.34663   0.33960   0.1199  1.0001  0.0384  -1.7229   0.0000   0.0000   0.0000   0.3496
 -26.000  -0.9428   0.34995   0.34291   0.1061  1.0001  0.0395  -1.8062   0.0000   0.0000   0.0000   0.3411
 -25.000  -0.9070   0.32482   0.31778   0.0983  1.0001  0.0410  -1.7274   0.0000   0.0000   0.0000   0.3383
 -24.000  -0.8709   0.30820   0.30104   0.0906  1.0001  0.0443  -1.5918   0.0000   0.0000   0.0000   0.3355
 -23.000  -0.8349   0.29591   0.28871   0.0814  1.0001  0.0484  -1.5391   0.0000   0.0000   0.0000   0.3304
 -22.000  -0.7987   0.28515   0.27794   0.0713  1.0001  0.0530  -1.5523   0.0000   0.0000   0.0000   0.3235
 -21.000  -0.7705   0.28577   0.27859   0.0585  1.0001  0.0549  -1.6507   0.0000   0.0000   0.0000   0.3118
 -20.000  -0.7275   0.26021   0.25303   0.0528  1.0001  0.0573  -1.5315   0.0000   0.0000   0.0000   0.3093
 -19.000  -0.6886   0.24567   0.23841   0.0461  1.0001  0.0645  -1.4119   0.0000   0.0000   0.0000   0.3047
 -18.000  -0.6579   0.23856   0.23134   0.0356  1.0001  0.0708  -1.4489   0.0000   0.0000   0.0000   0.2930
 -17.000  -0.6223   0.22246   0.21529   0.0284  1.0001  0.0733  -1.4617   0.0000   0.0000   0.0000   0.2853
 -16.000  -0.5821   0.20672   0.19955   0.0235  1.0001  0.0809  -1.3792   0.0000   0.0000   0.0000   0.2806
 -15.000  -0.5646   0.20133   0.19419   0.0135  1.0001  0.0879  -1.4777   0.0000   0.0000   0.0000   0.2652
 -14.000  -0.5192   0.18064   0.17353   0.0103  1.0001  0.0939  -1.3478   0.0000   0.0000   0.0000   0.2615
 -13.000  -0.5006   0.17136   0.16434   0.0029  1.0001  0.1044  -1.3721   0.0000   0.0000   0.0000   0.2482
 -12.000  -0.4636   0.15431   0.14736  -0.0003  1.0001  0.1120  -1.2680   0.0000   0.0000   0.0000   0.2420
 -11.000  -0.4763   0.14976   0.14302  -0.0106  1.0001  0.1226  -1.4674   0.0000   0.0000   0.0000   0.2216
 -10.000  -0.4528   0.13542   0.12878  -0.0145  1.0001  0.1398  -1.4869   0.0000   0.0000   0.0000   0.2122
  -9.000  -0.4226   0.11915   0.11268  -0.0169  1.0001  0.1578  -1.4910   0.0000   0.0000   0.0000   0.2047
  -8.000  -0.3890   0.10365   0.09732  -0.0175  1.0001  0.1774  -1.4798   0.0000   0.0000   0.0000   0.1998
  -7.000  -0.3723   0.09139   0.08531  -0.0176  1.0001  0.1998  -1.5005   0.0000   0.0000   0.0000   0.1982
  -6.000  -0.3903   0.08178   0.07611  -0.0183  1.0001  0.2287  -1.5907   0.0000   0.0000   0.0000   0.1998
  -5.000  -0.3597   0.05683   0.05081  -0.0447  1.0001  0.1375  -2.0829   0.0000   0.0000   0.0000   0.1224
  -4.000  -0.2507   0.03277   0.02463  -0.0624  1.0001  0.1162  -2.3746   0.0000   0.0000   0.0000  -0.0034
  -3.000  -0.1318   0.02469   0.01537  -0.0653  1.0001  0.1957  -2.0157   0.0000   0.0000   0.0000  -0.2518
  -2.000  -0.0192   0.02132   0.01198  -0.0656  1.0001  0.3477  -1.4817   0.0000   0.0000   0.0000  -3.1872
  -1.000   0.0886   0.01914   0.01086  -0.0645  1.0001  0.6118  -0.9103   0.0000   0.0000   0.0000   0.9811
   0.000   0.1654   0.01907   0.01088  -0.0599  1.0001  0.9999  -0.5495   0.0000   0.0000   0.0000   0.6115
   1.000   0.3306   0.02214   0.01334  -0.0747  0.9634  0.9999  -0.6586   0.0000   0.0000   0.0000   0.4740
   2.000   0.5503   0.02250   0.01364  -0.0919  0.8628  0.9999  -0.9070   0.0000   0.0000   0.0000   0.4142
   3.000   0.7057   0.01992   0.01111  -0.0898  0.7441  0.9999  -1.1517   0.0000   0.0000   0.0000   0.3738
   4.000   0.8185   0.02021   0.01067  -0.0824  0.5825  0.9999  -1.3794   0.0000   0.0000   0.0000   0.3463
   5.000   0.9216   0.02332   0.01316  -0.0779  0.4602  0.9999  -1.6255   0.0000   0.0000   0.0000   0.3293
   6.000   1.0228   0.02750   0.01737  -0.0748  0.3789  0.9999  -1.9546   0.0000   0.0000   0.0000   0.3169
   7.000   1.1213   0.03262   0.02266  -0.0717  0.3184  0.9999  -2.5999   0.0000   0.0000   0.0000   0.3065
   8.000   1.2082   0.03914   0.02989  -0.0676  0.2667  0.9999  -3.2657   0.0000   0.0000   0.0000   0.2974
   9.000   1.2718   0.04736   0.03916  -0.0616  0.2195  0.9999  -3.8374   0.0000   0.0000   0.0000   0.2887
  10.000   1.3072   0.05792   0.05073  -0.0542  0.1801  0.9999  -4.2597   0.0000   0.0000   0.0000   0.2805
  15.000   0.9736   0.20380   0.19752  -0.1146  0.1951  0.9999  -1.9928   0.0000   0.0000   0.0000   0.3532
  16.000   1.0108   0.22322   0.21700  -0.1182  0.1639  0.9999  -2.0000   0.0000   0.0000   0.0000   0.3510
  17.000   1.0396   0.24115   0.23495  -0.1251  0.1473  0.9999  -1.9663   0.0000   0.0000   0.0000   0.3530
  18.000   1.0726   0.25930   0.25320  -0.1318  0.1308  0.9999  -1.9665   0.0000   0.0000   0.0000   0.3540
  19.000   1.0843   0.26557   0.25942  -0.1460  0.1189  0.9999  -1.8618   0.0000   0.0000   0.0000   0.3640
  20.000   1.1167   0.28166   0.27552  -0.1548  0.1119  0.9999  -1.8867   0.0000   0.0000   0.0000   0.3662
  21.000   1.1545   0.29829   0.29226  -0.1616  0.0993  0.9999  -2.0092   0.0000   0.0000   0.0000   0.3656
  22.000   1.1803   0.30872   0.30266  -0.1749  0.0910  0.9999  -1.9698   0.0000   0.0000   0.0000   0.3718


