xflr5 v6.61

 Calculated polar for: TJ1_10_00

 1 1 Reynolds number fixed          Mach number fixed         

 xtrf =   1.000 (top)        1.000 (bottom)
 Mach =   0.200     Re =     0.125 e 6     Ncrit =   9.000

  alpha     CL        CD       CDp       Cm    Top Xtr Bot Xtr   Cpmin    Chinge    XCp    
 ------- -------- --------- --------- -------- ------- ------- -------- --------- ---------
 -29.000  -1.0260   0.36421   0.35939   0.1403  1.0001  0.0183  -1.9115   0.0000   0.0000   0.0000   0.3565
 -28.000  -0.9950   0.35271   0.34784   0.1304  1.0001  0.0196  -1.7757   0.0000   0.0000   0.0000   0.3531
 -27.000  -0.9622   0.34143   0.33649   0.1201  1.0001  0.0213  -1.7226   0.0000   0.0000   0.0000   0.3489
 -26.000  -0.9280   0.32981   0.32483   0.1097  1.0001  0.0235  -1.6834   0.0000   0.0000   0.0000   0.3442
 -25.000  -0.8919   0.32078   0.31578   0.0978  1.0001  0.0260  -1.7041   0.0000   0.0000   0.0000   0.3374
 -24.000  -0.8617   0.32028   0.31528   0.0842  1.0001  0.0266  -1.8305   0.0000   0.0000   0.0000   0.3273
 -23.000  -0.8246   0.29854   0.29351   0.0760  1.0001  0.0272  -1.8203   0.0000   0.0000   0.0000   0.3230
 -22.000  -0.7854   0.28009   0.27502   0.0701  1.0001  0.0291  -1.6334   0.0000   0.0000   0.0000   0.3214
 -21.000  -0.7480   0.26748   0.26240   0.0617  1.0001  0.0316  -1.5350   0.0000   0.0000   0.0000   0.3160
 -20.000  -0.7106   0.25485   0.24977   0.0530  1.0001  0.0352  -1.4688   0.0000   0.0000   0.0000   0.3093
 -19.000  -0.6761   0.24612   0.24101   0.0417  1.0001  0.0390  -1.5561   0.0000   0.0000   0.0000   0.2975
 -18.000  -0.6562   0.24291   0.23785   0.0297  1.0001  0.0397  -1.7329   0.0000   0.0000   0.0000   0.2824
 -17.000  -0.6035   0.21502   0.20997   0.0276  1.0001  0.0425  -1.5250   0.0000   0.0000   0.0000   0.2833
 -16.000  -0.5666   0.20179   0.19674   0.0215  1.0001  0.0463  -1.4279   0.0000   0.0000   0.0000   0.2763
 -15.000  -0.5334   0.18886   0.18381   0.0142  1.0001  0.0518  -1.3925   0.0000   0.0000   0.0000   0.2657
 -14.000  -0.5233   0.18203   0.17706   0.0028  1.0001  0.0549  -1.5447   0.0000   0.0000   0.0000   0.2453
 -13.000  -0.4854   0.16181   0.15689  -0.0011  1.0001  0.0568  -1.4901   0.0000   0.0000   0.0000   0.2379
 -12.000  -0.4476   0.14748   0.14259  -0.0036  1.0001  0.0625  -1.3909   0.0000   0.0000   0.0000   0.2326
 -11.000  -0.4419   0.13659   0.13181  -0.0139  1.0001  0.0709  -1.5959   0.0000   0.0000   0.0000   0.2101
 -10.000  -0.4162   0.11934   0.11463  -0.0175  1.0001  0.0741  -1.6452   0.0000   0.0000   0.0000   0.1997
  -9.000  -0.3953   0.10679   0.10220  -0.0230  1.0001  0.0866  -1.6906   0.0000   0.0000   0.0000   0.1845
  -8.000  -0.3734   0.09301   0.08857  -0.0254  1.0001  0.0975  -1.6965   0.0000   0.0000   0.0000   0.1752
  -7.000  -0.4285   0.08005   0.07599  -0.0382  1.0001  0.1061  -2.1066   0.0000   0.0000   0.0000   0.1557
  -6.000  -0.4402   0.04018   0.03498  -0.0582  1.0001  0.0542  -3.3077   0.0000   0.0000   0.0000   0.1119
  -5.000  -0.3503   0.02577   0.01886  -0.0639  1.0001  0.0652  -3.1464   0.0000   0.0000   0.0000   0.0614
  -4.000  -0.2332   0.01960   0.01158  -0.0656  1.0001  0.1041  -2.6149   0.0000   0.0000   0.0000  -0.0385
  -3.000  -0.1255   0.01806   0.01006  -0.0659  1.0001  0.1791  -1.9520   0.0000   0.0000   0.0000  -0.2842
  -2.000   0.0242   0.01717   0.00933  -0.0742  0.9860  0.2812  -1.2126   0.0000   0.0000   0.0000   3.3434
  -1.000   0.2142   0.01572   0.00887  -0.0889  0.9470  0.4933  -0.6391   0.0000   0.0000   0.0000   0.6657
   0.000   0.3654   0.01359   0.00788  -0.0912  0.8997  0.9999  -0.6984   0.0000   0.0000   0.0000   0.4985
   1.000   0.5006   0.01243   0.00633  -0.0911  0.8380  0.9999  -0.8732   0.0000   0.0000   0.0000   0.4297
   2.000   0.6134   0.01183   0.00529  -0.0866  0.7302  0.9999  -1.0513   0.0000   0.0000   0.0000   0.3881
   3.000   0.7182   0.01282   0.00531  -0.0821  0.5690  0.9999  -1.2458   0.0000   0.0000   0.0000   0.3602
   4.000   0.8195   0.01489   0.00647  -0.0788  0.4322  0.9999  -1.4533   0.0000   0.0000   0.0000   0.3411
   5.000   0.9233   0.01723   0.00829  -0.0765  0.3505  0.9999  -1.6956   0.0000   0.0000   0.0000   0.3268
   6.000   1.0281   0.01973   0.01065  -0.0745  0.2952  0.9999  -1.9906   0.0000   0.0000   0.0000   0.3153
   7.000   1.1317   0.02254   0.01344  -0.0724  0.2530  0.9999  -2.4097   0.0000   0.0000   0.0000   0.3056
   8.000   1.2319   0.02583   0.01696  -0.0698  0.2177  0.9999  -3.1333   0.0000   0.0000   0.0000   0.2970
   9.000   1.3235   0.02924   0.02075  -0.0661  0.1837  0.9999  -3.8851   0.0000   0.0000   0.0000   0.2889
  10.000   1.4001   0.03222   0.02410  -0.0607  0.1478  0.9999  -4.6441   0.0000   0.0000   0.0000   0.2808
  11.000   1.4524   0.03579   0.02839  -0.0526  0.1173  0.9999  -5.3049   0.0000   0.0000   0.0000   0.2720
  12.000   1.4610   0.04094   0.03418  -0.0417  0.0887  0.9999  -5.7964   0.0000   0.0000   0.0000   0.2626
  13.000   1.4341   0.05220   0.04594  -0.0356  0.0650  0.9999  -6.0400   0.0000   0.0000   0.0000   0.2571
  14.000   1.3833   0.07103   0.06538  -0.0386  0.0521  0.9999  -6.0204   0.0000   0.0000   0.0000   0.2582
  15.000   1.3057   0.09877   0.09397  -0.0507  0.0491  0.9999  -5.7025   0.0000   0.0000   0.0000   0.2674
  16.000   1.0504   0.18313   0.17886  -0.1009  0.0627  0.9999  -3.1103   0.0000   0.0000   0.0000   0.3267
  17.000   1.0630   0.20073   0.19645  -0.1094  0.0510  0.9999  -3.0670   0.0000   0.0000   0.0000   0.3320
  18.000   1.0657   0.24225   0.23794  -0.1260  0.0814  0.9999  -2.2015   0.0000   0.0000   0.0000   0.3476
  19.000   1.0764   0.25678   0.25242  -0.1427  0.0733  0.9999  -1.9466   0.0000   0.0000   0.0000   0.3605
  20.000   1.1216   0.27330   0.26904  -0.1450  0.0670  0.9999  -2.1828   0.0000   0.0000   0.0000   0.3551
  21.000   1.1388   0.28754   0.28322  -0.1615  0.0630  0.9999  -1.9742   0.0000   0.0000   0.0000   0.3660
  22.000   1.1718   0.30114   0.29686  -0.1711  0.0548  0.9999  -2.0528   0.0000   0.0000   0.0000   0.3681
  23.000   1.2160   0.32811   0.32398  -0.1726  0.0511  0.9999  -2.3681   0.0000   0.0000   0.0000   0.3617
  24.000   1.2346   0.33043   0.32626  -0.1922  0.0479  0.9999  -2.1116   0.0000   0.0000   0.0000   0.3734
  25.000   1.2668   0.34320   0.33909  -0.2024  0.0407  0.9999  -2.1870   0.0000   0.0000   0.0000   0.3750
  26.000   1.3055   0.37409   0.37007  -0.2040  0.0371  0.9999  -2.5443   0.0000   0.0000   0.0000   0.3690
  27.000   1.3278   0.37138   0.36738  -0.2227  0.0359  0.9999  -2.3328   0.0000   0.0000   0.0000   0.3778
  28.000   1.3588   0.38155   0.37761  -0.2358  0.0303  0.9999  -2.2915   0.0000   0.0000   0.0000   0.3809
  29.000   1.3877   0.39245   0.38858  -0.2454  0.0268  0.9999  -2.4017   0.0000   0.0000   0.0000   0.3811
  30.000   1.4159   0.42061   0.41680  -0.2509  0.0250  0.9999  -2.5381   0.0000   0.0000   0.0000   0.3784


