xflr5 v6.61

 Calculated polar for: TJ1_13_00

 1 1 Reynolds number fixed          Mach number fixed         

 xtrf =   1.000 (top)        1.000 (bottom)
 Mach =   0.200     Re =     0.100 e 6     Ncrit =   9.000

  alpha     CL        CD       CDp       Cm    Top Xtr Bot Xtr   Cpmin    Chinge    XCp    
 ------- -------- --------- --------- -------- ------- ------- -------- --------- ---------
 -30.000  -0.5776   0.30670   0.30211   0.0592  1.0001  0.0329  -0.8755   0.0000   0.0000   0.0000   0.3304
 -29.000  -0.5619   0.29544   0.29074   0.0529  1.0001  0.0373  -0.8753   0.0000   0.0000   0.0000   0.3236
 -28.000  -0.5501   0.28854   0.28376   0.0457  1.0001  0.0392  -0.9418   0.0000   0.0000   0.0000   0.3138
 -27.000  -0.5419   0.28384   0.27901   0.0387  1.0001  0.0396  -1.0245   0.0000   0.0000   0.0000   0.3032
 -26.000  -0.5159   0.26322   0.25837   0.0335  1.0001  0.0406  -0.9810   0.0000   0.0000   0.0000   0.2979
 -25.000  -0.4894   0.24901   0.24407   0.0290  1.0001  0.0438  -0.8683   0.0000   0.0000   0.0000   0.2936
 -24.000  -0.4676   0.23827   0.23328   0.0235  1.0001  0.0485  -0.8499   0.0000   0.0000   0.0000   0.2855
 -23.000  -0.4477   0.22847   0.22344   0.0173  1.0001  0.0532  -0.8820   0.0000   0.0000   0.0000   0.2747
 -22.000  -0.4388   0.22499   0.21992   0.0101  1.0001  0.0548  -0.9797   0.0000   0.0000   0.0000   0.2594
 -20.000  -0.3807   0.19611   0.19100   0.0012  1.0001  0.0592  -0.8529   0.0000   0.0000   0.0000   0.2407
 -19.000  -0.3555   0.18624   0.18111  -0.0035  1.0001  0.0653  -0.8622   0.0000   0.0000   0.0000   0.2281
 -18.000  -0.3519   0.18317   0.17803  -0.0107  1.0001  0.0712  -1.0403   0.0000   0.0000   0.0000   0.2074
 -17.000  -0.3130   0.16672   0.16162  -0.0134  1.0001  0.0759  -0.9846   0.0000   0.0000   0.0000   0.1951
 -16.000  -0.5094   0.19626   0.19051   0.0098  1.0001  0.0763  -1.4890   0.0000   0.0000   0.0000   0.2512
 -15.000  -0.4873   0.18663   0.18095   0.0007  1.0001  0.0875  -1.5863   0.0000   0.0000   0.0000   0.2344
 -14.000  -0.4523   0.16953   0.16387  -0.0041  1.0001  0.0913  -1.5827   0.0000   0.0000   0.0000   0.2241
 -13.000  -0.4294   0.15789   0.15229  -0.0105  1.0001  0.1041  -1.6088   0.0000   0.0000   0.0000   0.2097
 -12.000  -0.3934   0.14261   0.13707  -0.0133  1.0001  0.1149  -1.5323   0.0000   0.0000   0.0000   0.2005
 -11.000  -0.3883   0.12864   0.12322  -0.0206  1.0001  0.1251  -1.6368   0.0000   0.0000   0.0000   0.1822
 -10.000  -0.4030   0.11713   0.11187  -0.0306  1.0001  0.1396  -1.8204   0.0000   0.0000   0.0000   0.1613
  -9.000  -0.3541   0.10187   0.09663  -0.0279  1.0001  0.1609  -1.6627   0.0000   0.0000   0.0000   0.1585
  -8.000  -0.5339   0.06291   0.05796  -0.0512  1.0001  0.1047  -2.9704   0.0000   0.0000   0.0000   0.1442
  -7.000  -0.5509   0.04776   0.04246  -0.0518  1.0001  0.1137  -3.0169   0.0000   0.0000   0.0000   0.1474
  -6.000  -0.4988   0.03349   0.02677  -0.0560  1.0001  0.1335  -2.8514   0.0000   0.0000   0.0000   0.1292
  -5.000  -0.4048   0.02776   0.02009  -0.0569  1.0001  0.1620  -2.3678   0.0000   0.0000   0.0000   0.1010
  -4.000  -0.3049   0.02503   0.01688  -0.0571  1.0001  0.1966  -1.9052   0.0000   0.0000   0.0000   0.0541
  -3.000  -0.1270   0.02362   0.01524  -0.0708  0.9757  0.2525  -1.3766   0.0000   0.0000   0.0000  -0.3217
  -2.000   0.0585   0.02210   0.01380  -0.0840  0.9302  0.3233  -0.9986   0.0000   0.0000   0.0000   1.7050
  -1.000   0.2380   0.01991   0.01211  -0.0935  0.8816  0.4328  -0.6907   0.0000   0.0000   0.0000   0.6438
   0.000   0.3725   0.01690   0.01025  -0.0914  0.8250  0.6619  -0.8533   0.0000   0.0000   0.0000   0.4936
   1.000   0.4849   0.01453   0.00819  -0.0832  0.7428  0.9999  -1.0139   0.0000   0.0000   0.0000   0.4184
   2.000   0.6008   0.01472   0.00736  -0.0805  0.6216  0.9999  -1.1909   0.0000   0.0000   0.0000   0.3796
   3.000   0.7075   0.01630   0.00789  -0.0776  0.5031  0.9999  -1.3724   0.0000   0.0000   0.0000   0.3541
   4.000   0.8143   0.01847   0.00928  -0.0755  0.4210  0.9999  -1.5669   0.0000   0.0000   0.0000   0.3361
   5.000   0.9214   0.02090   0.01136  -0.0739  0.3645  0.9999  -1.7839   0.0000   0.0000   0.0000   0.3225
   6.000   1.0281   0.02366   0.01393  -0.0723  0.3233  0.9999  -2.0140   0.0000   0.0000   0.0000   0.3115
   7.000   1.1309   0.02698   0.01735  -0.0703  0.2911  0.9999  -2.2618   0.0000   0.0000   0.0000   0.3022
   8.000   1.2294   0.03093   0.02150  -0.0679  0.2644  0.9999  -2.5146   0.0000   0.0000   0.0000   0.2940
   9.000   1.3142   0.03560   0.02668  -0.0641  0.2403  0.9999  -2.8141   0.0000   0.0000   0.0000   0.2861
  10.000   1.3853   0.04160   0.03333  -0.0591  0.2210  0.9999  -3.1034   0.0000   0.0000   0.0000   0.2786
  11.000   1.4276   0.04885   0.04126  -0.0520  0.2033  0.9999  -3.4285   0.0000   0.0000   0.0000   0.2709
  12.000   1.3491   0.06347   0.05690  -0.0397  0.1932  0.9999  -3.4230   0.0000   0.0000   0.0000   0.2624
  13.000   1.3138   0.07823   0.07200  -0.0373  0.1817  0.9999  -3.5653   0.0000   0.0000   0.0000   0.2596
  15.000   0.9581   0.19246   0.18675  -0.0979  0.1994  0.9999  -1.7547   0.0000   0.0000   0.0000   0.3339
  16.000   0.9919   0.20900   0.20343  -0.1020  0.1816  0.9999  -1.9553   0.0000   0.0000   0.0000   0.3330
  17.000   0.9903   0.22015   0.21464  -0.1131  0.1661  0.9999  -1.9459   0.0000   0.0000   0.0000   0.3427
  18.000   1.0023   0.23381   0.22837  -0.1246  0.1529  0.9999  -1.9454   0.0000   0.0000   0.0000   0.3512
  19.000   1.0304   0.24793   0.24259  -0.1334  0.1397  0.9999  -2.0169   0.0000   0.0000   0.0000   0.3544
  20.000   1.0649   0.26091   0.25570  -0.1405  0.1191  0.9999  -2.0902   0.0000   0.0000   0.0000   0.3549
  21.000   1.0963   0.27558   0.27044  -0.1494  0.1020  0.9999  -2.0159   0.0000   0.0000   0.0000   0.3571
  22.000   1.1248   0.29070   0.28564  -0.1603  0.0903  0.9999  -1.9513   0.0000   0.0000   0.0000   0.3613
  23.000   1.1776   0.31313   0.30821  -0.1606  0.0821  0.9999  -2.2044   0.0000   0.0000   0.0000   0.3526
  24.000   1.1896   0.31945   0.31447  -0.1794  0.0793  0.9999  -1.9400   0.0000   0.0000   0.0000   0.3649
  25.000   1.2215   0.33151   0.32659  -0.1897  0.0702  0.9999  -1.9786   0.0000   0.0000   0.0000   0.3668
  26.000   1.2637   0.35805   0.35328  -0.1924  0.0661  0.9999  -2.2216   0.0000   0.0000   0.0000   0.3610
  27.000   1.2819   0.35736   0.35260  -0.2116  0.0616  0.9999  -2.0601   0.0000   0.0000   0.0000   0.3711
  28.000   1.3129   0.36815   0.36347  -0.2216  0.0548  0.9999  -2.1561   0.0000   0.0000   0.0000   0.3718
  29.000   1.3496   0.40104   0.39646  -0.2239  0.0511  0.9999  -2.4616   0.0000   0.0000   0.0000   0.3659
  30.000   1.3694   0.39165   0.38708  -0.2436  0.0492  0.9999  -2.2934   0.0000   0.0000   0.0000   0.3746


