
 ===================================================
  XFOIL Version 6.99
  Copyright (C) 2000   Mark Drela, Harold Youngren

  This software comes with ABSOLUTELY NO WARRANTY,
    subject to the GNU General Public License.

  Caveat computor
 ===================================================

 File  xfoil.def  not found

   QUIT    Exit program

  .OPER    Direct operating point(s)
  .MDES    Complex mapping design routine
  .QDES    Surface speed design routine
  .GDES    Geometry design routine

   SAVE f  Write airfoil to labeled coordinate file
   PSAV f  Write airfoil to plain coordinate file
   ISAV f  Write airfoil to ISES coordinate file
   MSAV f  Write airfoil to MSES coordinate file
   REVE    Reverse written-airfoil node ordering

   LOAD f  Read buffer airfoil from coordinate file
   NACA i  Set NACA 4,5-digit airfoil and buffer airfoil
   INTE    Set buffer airfoil by interpolating two airfoils
   NORM    Buffer airfoil normalization toggle
   XYCM rr Change CM reference location, currently  0.25000 0.00000

   BEND    Display structural properties of current airfoil

   PCOP    Set current-airfoil panel nodes directly from buffer airfoil points
   PANE    Set current-airfoil panel nodes ( 160 ) based on curvature
  .PPAR    Show/change paneling

  .PLOP    Plotting options

   WDEF f  Write  current-settings file
   RDEF f  Reread current-settings file
   NAME s  Specify new airfoil name
   NINC    Increment name version number

   Z       Zoom    | (available in all menus)
   U       Unzoom  | 

 XFOIL   c>  
 Labeled airfoil file.  Name:  SJ4_074014                                      

 Number of input coordinate points: 160
 Counterclockwise ordering
 Max thickness =     0.074530  at x =   0.289
 Max camber    =     0.014092  at x =   0.431

  LE  x,y  =  -0.00004   0.00024  |   Chord =   1.00004
  TE  x,y  =   1.00000  -0.00001  |

 Current airfoil nodes set from buffer airfoil nodes ( 160 )

 XFOIL   c>  
 XFOIL   c>  
 XFOIL   c>  
 You are working with the buffer airfoil

.GDES   c>   Enabling camber,thickness plotting

 Max thickness =   0.0745  at x =   0.289
 Max camber    =   0.0140  at x =   0.425


Enter new max  camber   <ret> to skip   r>   Max thickness =     0.074000  at x =   0.289
 Max camber    =     0.014092  at x =   0.431

.GDES   c>  
 Current airfoil nodes set from buffer airfoil nodes ( 160 )

.GDES   c>   Max thickness =     0.074000  at x =   0.289
 Max camber    =     0.014092  at x =   0.431

.GDES   c>  
 XFOIL   c>  
 You are working with the buffer airfoil

.GDES   c>  
Enter blending distance/c (0..1)   r>   Max thickness =     0.081064  at x =   0.337
 Max camber    =     0.014097  at x =   0.431

.GDES   c>  
 Current airfoil nodes set from buffer airfoil nodes ( 160 )

.GDES   c>   Max thickness =     0.081064  at x =   0.337
 Max camber    =     0.014097  at x =   0.431

.GDES   c>  
 XFOIL   c>  
 XFOIL   c>  
 XFOIL   c>  
 XFOIL   c>  
 XFOIL   c>  
 XFOIL   c>  